/*---------------------------------------------------------------------------*\
| =========                 |                                                 |
| \\      /  F ield         | OpenFOAM: The Open Source CFD Toolbox           |
|  \\    /   O peration     | Version:  2206                                  |
|   \\  /    A nd           | Website:  www.openfoam.com                      |
|    \\/     M anipulation  |                                                 |
\*---------------------------------------------------------------------------*/
Build  : _76d719d1e6-20220624 OPENFOAM=2206 version=v2206
Arch   : "LSB;label=32;scalar=64"
Exec   : overSedDymFoam_rbgh
Date   : Nov 04 2022
Time   : 10:00:45
Host   : cl2n009
PID    : 506729
I/O    : uncollated
Case   : /.fsdyn_people/puigmont9e/calcul/home/OpenFOAM/puigmont9e-v1906/src/SedFoamDila_V4/tutorialsDyM/2DRotor
nProcs : 1
trapFpe: Floating point exception trapping enabled (FOAM_SIGFPE).
fileModificationChecking : Monitoring run-time modified files using timeStampMaster (fileModificationSkew 5, maxFileModificationPolls 20)
allowSystemOperations : Allowing user-supplied system call operations

// * * * * * * * * * * * * * * * * * * * * * * * * * * * * * * * * * * * * * //
Create time

Create mesh for time = 0

Selecting dynamicFvMesh dynamicOversetFvMesh
Selecting motion solver: multiSolidBodyMotionSolver
Applying motion to entire mesh
Selecting solid-body motion function rotatingMotion
Applying solid body motion rotatingMotion to 3520 points of cellZone movingZone

PIMPLE: no residual control data found. Calculations will employ 2 corrector loops


Reading g

Storing g as gravity
rampTime for gravity set to 0
Reading transportProperties

Using #codeStream at line 20 in file "0/alpha.a"
Using #codeStream with "/.fsdyn_people/puigmont9e/calcul/home/OpenFOAM/puigmont9e-v1906/src/SedFoamDila_V4/tutorialsDyM/2DRotor/dynamicCode/platforms/linux64GccDPInt32Opt/lib/libcodeStream_6e5ea5f72613305ab2e468cd678d00c34517ab12.so"
Calculating face flux field phi.a
Calculating face flux field phi.b
Warning : alpha_b read but not used!

alpha_b is set to 1 - alpha_a


Reading forceProperties for gradP

Initializing with specified pressure gradient:(0 0 0)

Calculating face flux field phi

Reading field p_rbgh

Reading field pa

Computing field alphaPlastic

Calculating field U

Calculating field DDtUa and DDtUb

Calculating field g.h

Selecting dragModel for phase a: GidaspowSchillerNaumann
Selecting dragModel for phase b: GidaspowSchillerNaumann
dragPhase is a
Maximum number of iterations reached for settling velocity calculation
Settling velocity in quiescent water: Ufall=0.004032679758 with residual:3.353831578e-06
Selecting ppModel JohnsonJackson
Selecting viscosityModel Syamlal
Selecting conductivityModel Syamlal
Selecting radialModel CarnahanStarling
Selecting granularPressureModel Lun
Selecting FrictionModel MuI
Selecting PPressureModel none
Selecting FluidViscosityModel BoyerEtAl
Calculating field muEff

end of createFields
Creating cellMask field to block out hole cells

Creating interpolatedCells field 

Selecting incompressible transport model Newtonian
Selecting turbulence model type laminar
Selecting laminar stress model Stokes
Selecting incompressible transport model Newtonian
Selecting turbulence model type laminar
Selecting laminar stress model Stokes
Calculating field nuEffa

Calculating field nuFra

Calculating field nuEffb

Reading/calculating face velocity Ufb

Reading/calculating face velocity Ufa

No MRF models present

No finite volume options present
Courant Number mean: 0 max: 0
Turbulence suspension term is included
Choice for faceMomentum : false

Starting time loop

Courant Number mean: 0 max: 0
Max Ur Courant Number = 0
Interface Courant Number mean: 0 max: 0
deltaT = 3.003003003e-06
Time = 3.003e-06

cellVolumeWeight : detected 2 mesh regions

    zone:0 nCells:1500
    zone:1 nCells:1600
Marking patch-cells on zone 0
Marking patch-cells on zone 1

After patch analysis : nCells : 3100
    other  : 2468
    patch  : 436
    overset: 196

Creating mesh-to-mesh addressing for region0 and region0 regions using cellVolumeWeight
    Overlap volume: 1.599999557e-07
cellVolumeWeight : detected 4 mesh regions after overset

Front : fraction:1 size:240
Overset analysis : nCells : 3100
    calculated   : 2788
    interpolated : 234
    hole         : 78

MESH CHANGED
PIMPLE: iteration 1
DILUPBiCG:  Solving for alpha.a, Initial residual = 4.321877085e-11, Final residual = 4.321877085e-11, No Iterations 0
Dispersed phase volume fraction = 0.07546134222  Min(alpha) = 0  Max(alpha) = 0.5
smoothSolver:  Solving for pa, Initial residual = 0, Final residual = 0, No Iterations 0
Contact pressure  pff: Min =0, Max =0
Shear ind. press.  pa: Min =0, Max =0
DILUPBiCGStab:  Solving for p_rbgh, Initial residual = 1, Final residual = 7.261151962e-09, No Iterations 57
DILUPBiCGStab:  Solving for p_rbgh, Initial residual = 4.513422846e-10, Final residual = 4.513422846e-10, No Iterations 0
time step continuity errors : sum local = 8.05444778e-14, global = -1.584690923e-14, cumulative = -1.584690923e-14
DILUPBiCGStab:  Solving for p_rbgh, Initial residual = 0.0005162365094, Final residual = 6.661592813e-09, No Iterations 47
DILUPBiCGStab:  Solving for p_rbgh, Initial residual = 6.727593001e-09, Final residual = 6.727593001e-09, No Iterations 0
time step continuity errors : sum local = 1.352130602e-12, global = 5.709310358e-14, cumulative = 4.124619435e-14
PIMPLE: iteration 2
DILUPBiCG:  Solving for alpha.a, Initial residual = 1.861027355e-06, Final residual = 5.442233517e-15, No Iterations 1
Dispersed phase volume fraction = 0.07546134222  Min(alpha) = 0  Max(alpha) = 0.5000002249
smoothSolver:  Solving for pa, Initial residual = 0, Final residual = 0, No Iterations 0
Contact pressure  pff: Min =0, Max =0
Shear ind. press.  pa: Min =0, Max =0
DILUPBiCGStab:  Solving for p_rbgh, Initial residual = 0.0004335654532, Final residual = 8.79735088e-09, No Iterations 46
DILUPBiCGStab:  Solving for p_rbgh, Initial residual = 8.874401354e-09, Final residual = 8.874401354e-09, No Iterations 0
time step continuity errors : sum local = 1.888587186e-12, global = 1.405448162e-12, cumulative = 1.446694356e-12
DILUPBiCGStab:  Solving for p_rbgh, Initial residual = 1.650046531e-06, Final residual = 9.499337426e-09, No Iterations 10
DILUPBiCGStab:  Solving for p_rbgh, Initial residual = 9.499322557e-09, Final residual = 9.499322557e-09, No Iterations 0
time step continuity errors : sum local = 2.041683481e-12, global = 1.33611987e-12, cumulative = 2.782814226e-12
 max(nutb) = 0
min(Ua) = (-0.239606305 -0.6166074291 -1.488421524e-22)max(Ua) = (0.2399468664 0.5839009948 3.670180507e-22)
min(Ub) = (-0.239606305 -0.6166074291 -1.488421524e-22)max(Ub) = (0.2399468664 0.5839009948 3.670180507e-22)

ExecutionTime = 0.5 s  ClockTime = 0 s

Courant Number mean: 0.0008047094897 max: 0.01772764546
Max Ur Courant Number = 0.0003651665925
Interface Courant Number mean: 0.000887245624 max: 0.01831786465
deltaT = 3.599267137e-06
Time = 6.60227e-06

cellVolumeWeight : detected 2 mesh regions

    zone:0 nCells:1500
    zone:1 nCells:1600
Marking patch-cells on zone 0
Marking patch-cells on zone 1

After patch analysis : nCells : 3100
    other  : 2468
    patch  : 436
    overset: 196

Creating mesh-to-mesh addressing for region0 and region0 regions using cellVolumeWeight
    Overlap volume: 1.599999966e-07
cellVolumeWeight : detected 3 mesh regions after overset

Front : fraction:1 size:240
Overset analysis : nCells : 3100
    calculated   : 2788
    interpolated : 234
    hole         : 78

MESH CHANGED
PIMPLE: iteration 1
DILUPBiCG:  Solving for alpha.a, Initial residual = 2.10637972e-06, Final residual = 6.096473224e-15, No Iterations 1
Dispersed phase volume fraction = 0.07546134222  Min(alpha) = 0  Max(alpha) = 0.500000239
smoothSolver:  Solving for pa, Initial residual = 0, Final residual = 0, No Iterations 0
Contact pressure  pff: Min =0, Max =0
Shear ind. press.  pa: Min =0, Max =0
DILUPBiCGStab:  Solving for p_rbgh, Initial residual = 0.08741491249, Final residual = 3.857942164e-09, No Iterations 61
DILUPBiCGStab:  Solving for p_rbgh, Initial residual = 1.649886305e-08, Final residual = 7.10165457e-09, No Iterations 2
time step continuity errors : sum local = 4.77223806e-13, global = 9.424471365e-14, cumulative = 2.877058939e-12
DILUPBiCGStab:  Solving for p_rbgh, Initial residual = 0.0002114429073, Final residual = 2.67788093e-09, No Iterations 54
DILUPBiCGStab:  Solving for p_rbgh, Initial residual = 2.687450337e-09, Final residual = 2.687450337e-09, No Iterations 0
time step continuity errors : sum local = 1.701223535e-13, global = -1.694794983e-13, cumulative = 2.707579441e-12
PIMPLE: iteration 2
DILUPBiCG:  Solving for alpha.a, Initial residual = 1.406465156e-07, Final residual = 2.390013229e-16, No Iterations 1
Dispersed phase volume fraction = 0.07546134222  Min(alpha) = 0  Max(alpha) = 0.5000002457
smoothSolver:  Solving for pa, Initial residual = 0, Final residual = 0, No Iterations 0
Contact pressure  pff: Min =0, Max =0
Shear ind. press.  pa: Min =0, Max =0
DILUPBiCGStab:  Solving for p_rbgh, Initial residual = 7.68857657e-05, Final residual = 5.486386663e-09, No Iterations 39
DILUPBiCGStab:  Solving for p_rbgh, Initial residual = 5.516189338e-09, Final residual = 5.516189338e-09, No Iterations 0
time step continuity errors : sum local = 3.516799424e-13, global = -3.134956609e-13, cumulative = 2.39408378e-12
DILUPBiCGStab:  Solving for p_rbgh, Initial residual = 2.785836044e-07, Final residual = 7.390673286e-09, No Iterations 17
DILUPBiCGStab:  Solving for p_rbgh, Initial residual = 7.390599051e-09, Final residual = 7.390599051e-09, No Iterations 0
time step continuity errors : sum local = 5.266768771e-13, global = 4.339831541e-13, cumulative = 2.828066934e-12
 max(nutb) = 0
min(Ua) = (-0.2437185417 -0.6271045317 -1.681836321e-24)max(Ua) = (0.2446845661 0.5904665087 6.793204527e-24)
min(Ub) = (-0.2437185417 -0.6271045317 -1.681836321e-24)max(Ub) = (0.2446845661 0.5904665087 6.793204527e-24)

ExecutionTime = 0.88 s  ClockTime = 1 s

Courant Number mean: 0.0009580518756 max: 0.02140254055
Max Ur Courant Number = 0.0004620903189
Interface Courant Number mean: 0.001029148129 max: 0.02140254055
deltaT = 4.319120565e-06
Time = 1.09214e-05

cellVolumeWeight : detected 2 mesh regions

    zone:0 nCells:1500
    zone:1 nCells:1600
Marking patch-cells on zone 0
Marking patch-cells on zone 1

After patch analysis : nCells : 3100
    other  : 2468
    patch  : 436
    overset: 196

Creating mesh-to-mesh addressing for region0 and region0 regions using cellVolumeWeight
    Overlap volume: 1.599999999e-07
cellVolumeWeight : detected 3 mesh regions after overset

Front : fraction:1 size:240
Overset analysis : nCells : 3100
    calculated   : 2788
    interpolated : 234
    hole         : 78

MESH CHANGED
PIMPLE: iteration 1
DILUPBiCG:  Solving for alpha.a, Initial residual = 2.551459714e-06, Final residual = 1.032337753e-14, No Iterations 1
Dispersed phase volume fraction = 0.07546134223  Min(alpha) = 0  Max(alpha) = 0.500000271
smoothSolver:  Solving for pa, Initial residual = 0, Final residual = 0, No Iterations 0
Contact pressure  pff: Min =0, Max =0
Shear ind. press.  pa: Min =0, Max =0
DILUPBiCGStab:  Solving for p_rbgh, Initial residual = 0.07855598369, Final residual = 9.665983486e-09, No Iterations 52
DILUPBiCGStab:  Solving for p_rbgh, Initial residual = 2.401773665e-08, Final residual = 9.437692626e-09, No Iterations 5
time step continuity errors : sum local = 3.534266574e-13, global = 2.720069923e-13, cumulative = 3.100073926e-12
DILUPBiCGStab:  Solving for p_rbgh, Initial residual = 0.0003026364174, Final residual = 9.887986111e-09, No Iterations 43
DILUPBiCGStab:  Solving for p_rbgh, Initial residual = 9.920502415e-09, Final residual = 9.920502415e-09, No Iterations 0
time step continuity errors : sum local = 3.25184865e-13, global = 2.128813345e-13, cumulative = 3.312955261e-12
PIMPLE: iteration 2
DILUPBiCG:  Solving for alpha.a, Initial residual = 5.924394949e-08, Final residual = 5.924394949e-08, No Iterations 0
Dispersed phase volume fraction = 0.07546134223  Min(alpha) = 0  Max(alpha) = 0.500000271
smoothSolver:  Solving for pa, Initial residual = 0, Final residual = 0, No Iterations 0
Contact pressure  pff: Min =0, Max =0
Shear ind. press.  pa: Min =0, Max =0
DILUPBiCGStab:  Solving for p_rbgh, Initial residual = 0.0001127731079, Final residual = 4.474024575e-09, No Iterations 44
DILUPBiCGStab:  Solving for p_rbgh, Initial residual = 4.573485946e-09, Final residual = 4.573485946e-09, No Iterations 0
time step continuity errors : sum local = 1.591866383e-13, global = -1.516192603e-13, cumulative = 3.161336001e-12
DILUPBiCGStab:  Solving for p_rbgh, Initial residual = 5.686495539e-07, Final residual = 4.386882589e-09, No Iterations 22
DILUPBiCGStab:  Solving for p_rbgh, Initial residual = 4.386693148e-09, Final residual = 4.386693148e-09, No Iterations 0
time step continuity errors : sum local = 1.502311069e-13, global = 8.044347518e-14, cumulative = 3.241779476e-12
 max(nutb) = 0
min(Ua) = (-0.2475743595 -0.6317555647 -6.353272427e-25)max(Ua) = (0.2488656078 0.5936086832 3.735874778e-24)
min(Ub) = (-0.2475743595 -0.6317555647 -6.353272427e-25)max(Ub) = (0.2488656078 0.5936086832 3.735874778e-24)

ExecutionTime = 1.28 s  ClockTime = 1 s

Courant Number mean: 0.001148275852 max: 0.02570467783
Max Ur Courant Number = 0.0005650458788
Interface Courant Number mean: 0.001233978716 max: 0.02570467783
deltaT = 5.15145109e-06
Time = 1.60728e-05

cellVolumeWeight : detected 2 mesh regions

    zone:0 nCells:1500
    zone:1 nCells:1600
Marking patch-cells on zone 0
Marking patch-cells on zone 1

After patch analysis : nCells : 3100
    other  : 2468
    patch  : 436
    overset: 196

Creating mesh-to-mesh addressing for region0 and region0 regions using cellVolumeWeight
    Overlap volume: 1.599999998e-07
cellVolumeWeight : detected 3 mesh regions after overset

Front : fraction:1 size:240
Overset analysis : nCells : 3100
    calculated   : 2788
    interpolated : 234
    hole         : 78

MESH CHANGED
PIMPLE: iteration 1
DILUPBiCG:  Solving for alpha.a, Initial residual = 3.080141094e-06, Final residual = 1.496359145e-14, No Iterations 1
Dispersed phase volume fraction = 0.07546134223  Min(alpha) = 0  Max(alpha) = 0.5000003159
smoothSolver:  Solving for pa, Initial residual = 0, Final residual = 0, No Iterations 0
Contact pressure  pff: Min =0, Max =0
Shear ind. press.  pa: Min =0, Max =0
DILUPBiCGStab:  Solving for p_rbgh, Initial residual = 0.07924343147, Final residual = 7.872773796e-10, No Iterations 65
DILUPBiCGStab:  Solving for p_rbgh, Initial residual = 1.804908122e-09, Final residual = 1.804908122e-09, No Iterations 0
time step continuity errors : sum local = 3.237964304e-14, global = 1.970256534e-14, cumulative = 3.261482041e-12
DILUPBiCGStab:  Solving for p_rbgh, Initial residual = 0.0005197153058, Final residual = 6.890662307e-09, No Iterations 43
DILUPBiCGStab:  Solving for p_rbgh, Initial residual = 6.926165254e-09, Final residual = 6.926165254e-09, No Iterations 0
time step continuity errors : sum local = 1.377288958e-13, global = -9.414705829e-14, cumulative = 3.167334983e-12
PIMPLE: iteration 2
DILUPBiCG:  Solving for alpha.a, Initial residual = 5.980195402e-08, Final residual = 5.980195402e-08, No Iterations 0
Dispersed phase volume fraction = 0.07546134223  Min(alpha) = 0  Max(alpha) = 0.5000003159
smoothSolver:  Solving for pa, Initial residual = 0, Final residual = 0, No Iterations 0
Contact pressure  pff: Min =0, Max =0
Shear ind. press.  pa: Min =0, Max =0
DILUPBiCGStab:  Solving for p_rbgh, Initial residual = 0.000227777573, Final residual = 3.961554293e-09, No Iterations 45
DILUPBiCGStab:  Solving for p_rbgh, Initial residual = 4.213380643e-09, Final residual = 4.213380643e-09, No Iterations 0
time step continuity errors : sum local = 8.094759058e-14, global = -6.957147301e-14, cumulative = 3.09776351e-12
DILUPBiCGStab:  Solving for p_rbgh, Initial residual = 1.509207416e-06, Final residual = 7.024814317e-09, No Iterations 26
DILUPBiCGStab:  Solving for p_rbgh, Initial residual = 7.023831044e-09, Final residual = 7.023831044e-09, No Iterations 0
time step continuity errors : sum local = 1.376471221e-13, global = -6.488768727e-14, cumulative = 3.032875823e-12
 max(nutb) = 0
min(Ua) = (-0.2503736086 -0.6338487907 -3.691731337e-25)max(Ua) = (0.251829992 0.5950444883 1.954243625e-24)
min(Ub) = (-0.2503736086 -0.6338487907 -3.691731337e-25)max(Ub) = (0.251829992 0.5950444883 1.954243625e-24)

ExecutionTime = 1.67 s  ClockTime = 1 s

Courant Number mean: 0.001369613821 max: 0.03067814397
Max Ur Courant Number = 0.0006799974495
Interface Courant Number mean: 0.001472335169 max: 0.03067814397
deltaT = 5.999555843e-06
Time = 2.20724e-05

cellVolumeWeight : detected 2 mesh regions

    zone:0 nCells:1500
    zone:1 nCells:1600
Marking patch-cells on zone 0
Marking patch-cells on zone 1

After patch analysis : nCells : 3100
    other  : 2468
    patch  : 436
    overset: 196

Creating mesh-to-mesh addressing for region0 and region0 regions using cellVolumeWeight
    Overlap volume: 1.599999995e-07
cellVolumeWeight : detected 3 mesh regions after overset

Front : fraction:1 size:240
Overset analysis : nCells : 3100
    calculated   : 2788
    interpolated : 234
    hole         : 78

MESH CHANGED
PIMPLE: iteration 1
DILUPBiCG:  Solving for alpha.a, Initial residual = 3.625782638e-06, Final residual = 2.551647191e-14, No Iterations 1
Dispersed phase volume fraction = 0.07546134223  Min(alpha) = 0  Max(alpha) = 0.5000005106
smoothSolver:  Solving for pa, Initial residual = 0, Final residual = 0, No Iterations 0
Contact pressure  pff: Min =0, Max =0
Shear ind. press.  pa: Min =0, Max =0
DILUPBiCGStab:  Solving for p_rbgh, Initial residual = 0.1069563854, Final residual = 8.484926053e-09, No Iterations 53
DILUPBiCGStab:  Solving for p_rbgh, Initial residual = 1.612151675e-08, Final residual = 9.129157022e-09, No Iterations 2
time step continuity errors : sum local = 1.119181093e-13, global = -9.392837903e-14, cumulative = 2.938947444e-12
DILUPBiCGStab:  Solving for p_rbgh, Initial residual = 0.0008978257093, Final residual = 6.678027419e-09, No Iterations 42
DILUPBiCGStab:  Solving for p_rbgh, Initial residual = 6.734288689e-09, Final residual = 6.734288689e-09, No Iterations 0
time step continuity errors : sum local = 7.651764621e-14, global = -5.919950776e-14, cumulative = 2.879747936e-12
PIMPLE: iteration 2
DILUPBiCG:  Solving for alpha.a, Initial residual = 6.507153054e-08, Final residual = 6.507153054e-08, No Iterations 0
Dispersed phase volume fraction = 0.07546134223  Min(alpha) = 0  Max(alpha) = 0.5000005106
smoothSolver:  Solving for pa, Initial residual = 0, Final residual = 0, No Iterations 0
Contact pressure  pff: Min =0, Max =0
Shear ind. press.  pa: Min =0, Max =0
DILUPBiCGStab:  Solving for p_rbgh, Initial residual = 0.0004393556802, Final residual = 9.631990394e-09, No Iterations 46
DILUPBiCGStab:  Solving for p_rbgh, Initial residual = 9.045394384e-09, Final residual = 9.045394384e-09, No Iterations 0
time step continuity errors : sum local = 1.151562648e-13, global = -7.778297242e-14, cumulative = 2.801964963e-12
DILUPBiCGStab:  Solving for p_rbgh, Initial residual = 3.142206252e-06, Final residual = 7.743489335e-09, No Iterations 27
DILUPBiCGStab:  Solving for p_rbgh, Initial residual = 7.74593844e-09, Final residual = 7.74593844e-09, No Iterations 0
time step continuity errors : sum local = 1.046558474e-13, global = -3.150064327e-14, cumulative = 2.77046432e-12
 max(nutb) = 0
min(Ua) = (-0.2523528369 -0.6344697091 -5.674362116e-25)max(Ua) = (0.2539167148 0.5953300416 1.06975225e-24)
min(Ub) = (-0.2523528369 -0.6344697091 -5.674362116e-25)max(Ub) = (0.2539167148 0.5953300416 1.06975225e-24)

ExecutionTime = 2.07 s  ClockTime = 2 s

Courant Number mean: 0.001595467028 max: 0.03574124781
Max Ur Courant Number = 0.000796545091
Interface Courant Number mean: 0.001715648155 max: 0.03574124781
deltaT = 6.838654562e-06
Time = 2.89111e-05

cellVolumeWeight : detected 2 mesh regions

    zone:0 nCells:1500
    zone:1 nCells:1600
Marking patch-cells on zone 0
Marking patch-cells on zone 1

After patch analysis : nCells : 3100
    other  : 2468
    patch  : 436
    overset: 196

Creating mesh-to-mesh addressing for region0 and region0 regions using cellVolumeWeight
    Overlap volume: 1.599999988e-07
cellVolumeWeight : detected 3 mesh regions after overset

Front : fraction:1 size:240
Overset analysis : nCells : 3100
    calculated   : 2788
    interpolated : 234
    hole         : 78

MESH CHANGED
PIMPLE: iteration 1
DILUPBiCG:  Solving for alpha.a, Initial residual = 4.174775236e-06, Final residual = 3.6561764e-14, No Iterations 1
Dispersed phase volume fraction = 0.07546134223  Min(alpha) = 0  Max(alpha) = 0.500001006
smoothSolver:  Solving for pa, Initial residual = 0, Final residual = 0, No Iterations 0
Contact pressure  pff: Min =0, Max =0
Shear ind. press.  pa: Min =0, Max =0
DILUPBiCGStab:  Solving for p_rbgh, Initial residual = 0.1243443244, Final residual = 5.539662047e-09, No Iterations 50
DILUPBiCGStab:  Solving for p_rbgh, Initial residual = 5.528621788e-09, Final residual = 5.528621788e-09, No Iterations 0
time step continuity errors : sum local = 8.233526684e-14, global = -6.709291391e-14, cumulative = 2.703371406e-12
DILUPBiCGStab:  Solving for p_rbgh, Initial residual = 0.0007871398919, Final residual = 7.066810967e-09, No Iterations 37
DILUPBiCGStab:  Solving for p_rbgh, Initial residual = 7.020127903e-09, Final residual = 7.020127903e-09, No Iterations 0
time step continuity errors : sum local = 1.056073797e-13, global = -8.18023739e-14, cumulative = 2.621569032e-12
PIMPLE: iteration 2
DILUPBiCG:  Solving for alpha.a, Initial residual = 7.18642339e-08, Final residual = 7.18642339e-08, No Iterations 0
Dispersed phase volume fraction = 0.07546134223  Min(alpha) = 0  Max(alpha) = 0.500001006
smoothSolver:  Solving for pa, Initial residual = 0, Final residual = 0, No Iterations 0
Contact pressure  pff: Min =0, Max =0
Shear ind. press.  pa: Min =0, Max =0
DILUPBiCGStab:  Solving for p_rbgh, Initial residual = 0.0004210344593, Final residual = 5.259152387e-09, No Iterations 48
DILUPBiCGStab:  Solving for p_rbgh, Initial residual = 4.590594098e-09, Final residual = 4.590594098e-09, No Iterations 0
time step continuity errors : sum local = 8.154360683e-14, global = -4.988410479e-14, cumulative = 2.571684927e-12
DILUPBiCGStab:  Solving for p_rbgh, Initial residual = 3.251127106e-06, Final residual = 7.462128362e-09, No Iterations 29
DILUPBiCGStab:  Solving for p_rbgh, Initial residual = 7.464687634e-09, Final residual = 7.464687634e-09, No Iterations 0
time step continuity errors : sum local = 1.383867908e-13, global = 1.214501305e-14, cumulative = 2.583829941e-12
 max(nutb) = 0
min(Ua) = (-0.2537036629 -0.634207375 -6.221935797e-25)max(Ua) = (0.2553732756 0.5949469035 9.985906191e-25)
min(Ub) = (-0.2537036629 -0.634207375 -6.221935797e-25)max(Ub) = (0.2553732756 0.5949469035 9.985906191e-25)

ExecutionTime = 2.45 s  ClockTime = 2 s

Courant Number mean: 0.001819146847 max: 0.0407483684
Max Ur Courant Number = 0.0009115084033
Interface Courant Number mean: 0.001956772999 max: 0.0407483684
deltaT = 7.707055141e-06
Time = 3.66181e-05

cellVolumeWeight : detected 2 mesh regions

    zone:0 nCells:1500
    zone:1 nCells:1600
Marking patch-cells on zone 0
Marking patch-cells on zone 1

After patch analysis : nCells : 3100
    other  : 2468
    patch  : 436
    overset: 196

Creating mesh-to-mesh addressing for region0 and region0 regions using cellVolumeWeight
    Overlap volume: 1.599999975e-07
cellVolumeWeight : detected 3 mesh regions after overset

Front : fraction:1 size:240
Overset analysis : nCells : 3100
    calculated   : 2788
    interpolated : 234
    hole         : 78

MESH CHANGED
PIMPLE: iteration 1
DILUPBiCG:  Solving for alpha.a, Initial residual = 4.752128151e-06, Final residual = 5.086420266e-14, No Iterations 1
Dispersed phase volume fraction = 0.07546134224  Min(alpha) = 0  Max(alpha) = 0.5000017236
smoothSolver:  Solving for pa, Initial residual = 0, Final residual = 0, No Iterations 0
Contact pressure  pff: Min =0, Max =0
Shear ind. press.  pa: Min =0, Max =0
DILUPBiCGStab:  Solving for p_rbgh, Initial residual = 0.07939429885, Final residual = 8.934652285e-09, No Iterations 51
DILUPBiCGStab:  Solving for p_rbgh, Initial residual = 9.85979271e-09, Final residual = 9.85979271e-09, No Iterations 0
time step continuity errors : sum local = 1.821739475e-13, global = 1.077227682e-13, cumulative = 2.691552709e-12
DILUPBiCGStab:  Solving for p_rbgh, Initial residual = 0.0006990023186, Final residual = 4.795122566e-09, No Iterations 40
DILUPBiCGStab:  Solving for p_rbgh, Initial residual = 4.767695975e-09, Final residual = 4.767695975e-09, No Iterations 0
time step continuity errors : sum local = 8.24322949e-14, global = 1.151547494e-14, cumulative = 2.703068184e-12
PIMPLE: iteration 2
DILUPBiCG:  Solving for alpha.a, Initial residual = 8.037941307e-08, Final residual = 8.037941307e-08, No Iterations 0
Dispersed phase volume fraction = 0.07546134224  Min(alpha) = 0  Max(alpha) = 0.5000017236
smoothSolver:  Solving for pa, Initial residual = 0, Final residual = 0, No Iterations 0
Contact pressure  pff: Min =0, Max =0
Shear ind. press.  pa: Min =0, Max =0
DILUPBiCGStab:  Solving for p_rbgh, Initial residual = 0.000411540245, Final residual = 9.055240788e-09, No Iterations 44
DILUPBiCGStab:  Solving for p_rbgh, Initial residual = 7.864997393e-09, Final residual = 7.864997393e-09, No Iterations 0
time step continuity errors : sum local = 1.76006774e-13, global = -7.334181468e-14, cumulative = 2.629726369e-12
DILUPBiCGStab:  Solving for p_rbgh, Initial residual = 3.613806153e-06, Final residual = 8.500089856e-09, No Iterations 28
DILUPBiCGStab:  Solving for p_rbgh, Initial residual = 8.503390723e-09, Final residual = 8.503390723e-09, No Iterations 0
time step continuity errors : sum local = 1.753426503e-13, global = -5.751383052e-14, cumulative = 2.572212538e-12
 max(nutb) = 0
min(Ua) = (-0.2545402816 -0.6332504162 -6.649297316e-25)max(Ua) = (0.2563502322 0.5939438809 9.4168904e-25)
min(Ub) = (-0.2545402816 -0.6332504162 -6.649297316e-25)max(Ub) = (0.2563502322 0.5939438809 9.4168904e-25)

ExecutionTime = 2.84 s  ClockTime = 3 s

Courant Number mean: 0.002050720599 max: 0.04592900812
Max Ur Courant Number = 0.001029712048
Interface Courant Number mean: 0.0022065516 max: 0.04592900812
deltaT = 8.377233849e-06
Time = 4.49953e-05

cellVolumeWeight : detected 2 mesh regions

    zone:0 nCells:1500
    zone:1 nCells:1600
Marking patch-cells on zone 0
Marking patch-cells on zone 1

After patch analysis : nCells : 3100
    other  : 2468
    patch  : 436
    overset: 196

Creating mesh-to-mesh addressing for region0 and region0 regions using cellVolumeWeight
    Overlap volume: 1.599999954e-07
cellVolumeWeight : detected 3 mesh regions after overset

Front : fraction:1 size:240
Overset analysis : nCells : 3100
    calculated   : 2788
    interpolated : 234
    hole         : 78

MESH CHANGED
PIMPLE: iteration 1
DILUPBiCG:  Solving for alpha.a, Initial residual = 5.218652023e-06, Final residual = 6.411578037e-14, No Iterations 1
Dispersed phase volume fraction = 0.07546134224  Min(alpha) = 0  Max(alpha) = 0.5000026926
smoothSolver:  Solving for pa, Initial residual = 0, Final residual = 0, No Iterations 0
Contact pressure  pff: Min =0, Max =0
Shear ind. press.  pa: Min =0, Max =0
DILUPBiCGStab:  Solving for p_rbgh, Initial residual = 0.05016195781, Final residual = 2.853504846e-09, No Iterations 60
DILUPBiCGStab:  Solving for p_rbgh, Initial residual = 3.412040617e-09, Final residual = 3.412040617e-09, No Iterations 0
time step continuity errors : sum local = 7.651419382e-14, global = -1.468646982e-14, cumulative = 2.557526069e-12
DILUPBiCGStab:  Solving for p_rbgh, Initial residual = 0.0006862103144, Final residual = 1.162347753e-09, No Iterations 44
DILUPBiCGStab:  Solving for p_rbgh, Initial residual = 1.155986561e-09, Final residual = 1.155986561e-09, No Iterations 0
time step continuity errors : sum local = 2.214316155e-14, global = 1.096367079e-14, cumulative = 2.568489739e-12
PIMPLE: iteration 2
DILUPBiCG:  Solving for alpha.a, Initial residual = 8.622720155e-08, Final residual = 8.622720155e-08, No Iterations 0
Dispersed phase volume fraction = 0.07546134224  Min(alpha) = 0  Max(alpha) = 0.5000026926
smoothSolver:  Solving for pa, Initial residual = 0, Final residual = 0, No Iterations 0
Contact pressure  pff: Min =0, Max =0
Shear ind. press.  pa: Min =0, Max =0
DILUPBiCGStab:  Solving for p_rbgh, Initial residual = 0.0004299958305, Final residual = 2.989469215e-09, No Iterations 46
DILUPBiCGStab:  Solving for p_rbgh, Initial residual = 2.566895708e-09, Final residual = 2.566895708e-09, No Iterations 0
time step continuity errors : sum local = 5.96305637e-14, global = 2.158569626e-14, cumulative = 2.590075436e-12
DILUPBiCGStab:  Solving for p_rbgh, Initial residual = 4.082707573e-06, Final residual = 8.91719795e-09, No Iterations 32
DILUPBiCGStab:  Solving for p_rbgh, Initial residual = 8.921164941e-09, Final residual = 8.921164941e-09, No Iterations 0
time step continuity errors : sum local = 2.234764181e-13, global = -5.952033645e-14, cumulative = 2.530555099e-12
 max(nutb) = 0
min(Ua) = (-0.2549783766 -0.6318726115 -6.60142787e-25)max(Ua) = (0.2569794158 0.5925324956 8.853562428e-25)
min(Ub) = (-0.2549783766 -0.6318726115 -6.60142787e-25)max(Ub) = (0.2569794158 0.5925324956 8.853562428e-25)

ExecutionTime = 3.23 s  ClockTime = 3 s

Courant Number mean: 0.002229666123 max: 0.04993060032
Max Ur Courant Number = 0.001120889591
Interface Courant Number mean: 0.002399857001 max: 0.04993060032
deltaT = 8.377233849e-06
Time = 5.33726e-05

cellVolumeWeight : detected 2 mesh regions

    zone:0 nCells:1500
    zone:1 nCells:1600
Marking patch-cells on zone 0
Marking patch-cells on zone 1

After patch analysis : nCells : 3100
    other  : 2468
    patch  : 436
    overset: 196

Creating mesh-to-mesh addressing for region0 and region0 regions using cellVolumeWeight
    Overlap volume: 1.599999923e-07
cellVolumeWeight : detected 3 mesh regions after overset

Front : fraction:1 size:240
Overset analysis : nCells : 3100
    calculated   : 2788
    interpolated : 234
    hole         : 78

MESH CHANGED
PIMPLE: iteration 1
DILUPBiCG:  Solving for alpha.a, Initial residual = 5.273194178e-06, Final residual = 6.41262865e-14, No Iterations 1
Dispersed phase volume fraction = 0.07546134225  Min(alpha) = 0  Max(alpha) = 0.5000038586
smoothSolver:  Solving for pa, Initial residual = 0, Final residual = 0, No Iterations 0
Contact pressure  pff: Min =0, Max =0
Shear ind. press.  pa: Min =0, Max =0
DILUPBiCGStab:  Solving for p_rbgh, Initial residual = 0.02584067976, Final residual = 4.449909666e-09, No Iterations 51
DILUPBiCGStab:  Solving for p_rbgh, Initial residual = 5.091835561e-09, Final residual = 5.091835561e-09, No Iterations 0
time step continuity errors : sum local = 9.947367547e-14, global = -7.458734183e-15, cumulative = 2.523096365e-12
DILUPBiCGStab:  Solving for p_rbgh, Initial residual = 0.0006164562218, Final residual = 8.221092321e-09, No Iterations 40
DILUPBiCGStab:  Solving for p_rbgh, Initial residual = 8.180425168e-09, Final residual = 8.180425168e-09, No Iterations 0
time step continuity errors : sum local = 1.673280429e-13, global = -5.543914416e-14, cumulative = 2.467657221e-12
PIMPLE: iteration 2
DILUPBiCG:  Solving for alpha.a, Initial residual = 8.075849253e-08, Final residual = 8.075849253e-08, No Iterations 0
Dispersed phase volume fraction = 0.07546134225  Min(alpha) = 0  Max(alpha) = 0.5000038586
smoothSolver:  Solving for pa, Initial residual = 0, Final residual = 0, No Iterations 0
Contact pressure  pff: Min =0, Max =0
Shear ind. press.  pa: Min =0, Max =0
DILUPBiCGStab:  Solving for p_rbgh, Initial residual = 0.000416310014, Final residual = 9.911274341e-09, No Iterations 45
DILUPBiCGStab:  Solving for p_rbgh, Initial residual = 8.509586541e-09, Final residual = 8.509586541e-09, No Iterations 0
time step continuity errors : sum local = 1.967356942e-13, global = -1.058470803e-13, cumulative = 2.361810141e-12
DILUPBiCGStab:  Solving for p_rbgh, Initial residual = 3.960302132e-06, Final residual = 9.772253858e-09, No Iterations 28
DILUPBiCGStab:  Solving for p_rbgh, Initial residual = 9.77646074e-09, Final residual = 9.77646074e-09, No Iterations 0
time step continuity errors : sum local = 2.421429498e-13, global = -8.199310332e-14, cumulative = 2.279817037e-12
 max(nutb) = 0
min(Ua) = (-0.2566981068 -0.6302398788 -6.424253788e-25)max(Ua) = (0.2595648669 0.5909322918 8.327947765e-25)
min(Ub) = (-0.2566981068 -0.6302398788 -6.424253788e-25)max(Ub) = (0.2595648669 0.5909322918 8.327947765e-25)

ExecutionTime = 3.61 s  ClockTime = 3 s

Courant Number mean: 0.002230241116 max: 0.04994131353
Max Ur Courant Number = 0.001121822278
Interface Courant Number mean: 0.002401209781 max: 0.04994131353
deltaT = 8.377233849e-06
Time = 6.17498e-05

cellVolumeWeight : detected 2 mesh regions

    zone:0 nCells:1500
    zone:1 nCells:1600
Marking patch-cells on zone 0
Marking patch-cells on zone 1

After patch analysis : nCells : 3100
    other  : 2468
    patch  : 436
    overset: 196

Creating mesh-to-mesh addressing for region0 and region0 regions using cellVolumeWeight
    Overlap volume: 1.599999935e-07
cellVolumeWeight : detected 3 mesh regions after overset

Front : fraction:1 size:240
Overset analysis : nCells : 3100
    calculated   : 2788
    interpolated : 234
    hole         : 78

MESH CHANGED
PIMPLE: iteration 1
DILUPBiCG:  Solving for alpha.a, Initial residual = 5.325103805e-06, Final residual = 6.410247699e-14, No Iterations 1
Dispersed phase volume fraction = 0.07546134225  Min(alpha) = 0  Max(alpha) = 0.5000052106
smoothSolver:  Solving for pa, Initial residual = 0, Final residual = 0, No Iterations 0
Contact pressure  pff: Min =0, Max =0
Shear ind. press.  pa: Min =0, Max =0
DILUPBiCGStab:  Solving for p_rbgh, Initial residual = 0.02127711948, Final residual = 7.697347592e-09, No Iterations 50
DILUPBiCGStab:  Solving for p_rbgh, Initial residual = 9.006026111e-09, Final residual = 9.006026111e-09, No Iterations 0
time step continuity errors : sum local = 9.254787343e-14, global = -8.547483577e-15, cumulative = 2.271269554e-12
DILUPBiCGStab:  Solving for p_rbgh, Initial residual = 0.0005716222506, Final residual = 9.625617413e-09, No Iterations 47
DILUPBiCGStab:  Solving for p_rbgh, Initial residual = 9.580481997e-09, Final residual = 9.580481997e-09, No Iterations 0
time step continuity errors : sum local = 1.901423426e-13, global = -3.864049507e-14, cumulative = 2.232629059e-12
PIMPLE: iteration 2
DILUPBiCG:  Solving for alpha.a, Initial residual = 7.644225838e-08, Final residual = 7.644225838e-08, No Iterations 0
Dispersed phase volume fraction = 0.07546134225  Min(alpha) = 0  Max(alpha) = 0.5000052106
smoothSolver:  Solving for pa, Initial residual = 0, Final residual = 0, No Iterations 0
Contact pressure  pff: Min =0, Max =0
Shear ind. press.  pa: Min =0, Max =0
DILUPBiCGStab:  Solving for p_rbgh, Initial residual = 0.0004143234853, Final residual = 7.928990701e-09, No Iterations 47
DILUPBiCGStab:  Solving for p_rbgh, Initial residual = 6.789666894e-09, Final residual = 6.789666894e-09, No Iterations 0
time step continuity errors : sum local = 1.964037905e-13, global = -5.496440997e-14, cumulative = 2.177664649e-12
DILUPBiCGStab:  Solving for p_rbgh, Initial residual = 3.923446018e-06, Final residual = 7.551260438e-09, No Iterations 31
DILUPBiCGStab:  Solving for p_rbgh, Initial residual = 7.554482469e-09, Final residual = 7.554482469e-09, No Iterations 0
time step continuity errors : sum local = 1.8988227e-13, global = -7.81973114e-14, cumulative = 2.099467337e-12
 max(nutb) = 0
min(Ua) = (-0.26012422 -0.6284658987 -6.16432701e-25)max(Ua) = (0.2630021864 0.5891895748 7.765318759e-25)
min(Ub) = (-0.26012422 -0.6284658987 -6.16432701e-25)max(Ub) = (0.2630021864 0.5891895748 7.765318759e-25)

ExecutionTime = 4 s  ClockTime = 4 s

Courant Number mean: 0.002230767805 max: 0.04995537883
Max Ur Courant Number = 0.001122251822
Interface Courant Number mean: 0.002402497427 max: 0.04995537883
deltaT = 8.377233849e-06
Time = 7.0127e-05

cellVolumeWeight : detected 2 mesh regions

    zone:0 nCells:1500
    zone:1 nCells:1600
Marking patch-cells on zone 0
Marking patch-cells on zone 1

After patch analysis : nCells : 3100
    other  : 2468
    patch  : 436
    overset: 196

Creating mesh-to-mesh addressing for region0 and region0 regions using cellVolumeWeight
    Overlap volume: 1.599999904e-07
cellVolumeWeight : detected 3 mesh regions after overset

Front : fraction:1 size:240
Overset analysis : nCells : 3100
    calculated   : 2788
    interpolated : 234
    hole         : 78

MESH CHANGED
PIMPLE: iteration 1
DILUPBiCG:  Solving for alpha.a, Initial residual = 5.375091393e-06, Final residual = 6.404663891e-14, No Iterations 1
Dispersed phase volume fraction = 0.07546134226  Min(alpha) = 0  Max(alpha) = 0.5000067418
smoothSolver:  Solving for pa, Initial residual = 0, Final residual = 0, No Iterations 0
Contact pressure  pff: Min =0, Max =0
Shear ind. press.  pa: Min =0, Max =0
DILUPBiCGStab:  Solving for p_rbgh, Initial residual = 0.0180968378, Final residual = 8.006850137e-09, No Iterations 59
DILUPBiCGStab:  Solving for p_rbgh, Initial residual = 9.152710854e-09, Final residual = 9.152710854e-09, No Iterations 0
time step continuity errors : sum local = 1.780061463e-13, global = -1.67154727e-13, cumulative = 1.93231261e-12
DILUPBiCGStab:  Solving for p_rbgh, Initial residual = 0.0005196879939, Final residual = 9.743016846e-09, No Iterations 49
DILUPBiCGStab:  Solving for p_rbgh, Initial residual = 9.700068774e-09, Final residual = 9.700068774e-09, No Iterations 0
time step continuity errors : sum local = 2.07369823e-13, global = -6.950075915e-14, cumulative = 1.862811851e-12
PIMPLE: iteration 2
DILUPBiCG:  Solving for alpha.a, Initial residual = 7.280607402e-08, Final residual = 7.280607402e-08, No Iterations 0
Dispersed phase volume fraction = 0.07546134226  Min(alpha) = 0  Max(alpha) = 0.5000067418
smoothSolver:  Solving for pa, Initial residual = 0, Final residual = 0, No Iterations 0
Contact pressure  pff: Min =0, Max =0
Shear ind. press.  pa: Min =0, Max =0
DILUPBiCGStab:  Solving for p_rbgh, Initial residual = 0.0004035427336, Final residual = 7.282531338e-09, No Iterations 45
DILUPBiCGStab:  Solving for p_rbgh, Initial residual = 6.245314354e-09, Final residual = 6.245314354e-09, No Iterations 0
time step continuity errors : sum local = 1.487888264e-13, global = -8.861309379e-14, cumulative = 1.774198757e-12
DILUPBiCGStab:  Solving for p_rbgh, Initial residual = 3.818621588e-06, Final residual = 9.002408825e-09, No Iterations 28
DILUPBiCGStab:  Solving for p_rbgh, Initial residual = 9.006093357e-09, Final residual = 9.006093357e-09, No Iterations 0
time step continuity errors : sum local = 2.185796551e-13, global = 2.994888998e-15, cumulative = 1.777193646e-12
 max(nutb) = 0
min(Ua) = (-0.2633382523 -0.626546546 -6.078202955e-25)max(Ua) = (0.2662232689 0.5873163365 7.193046026e-25)
min(Ub) = (-0.2633382523 -0.626546546 -6.078202955e-25)max(Ub) = (0.2662232689 0.5873163365 7.193046026e-25)

ExecutionTime = 4.38 s  ClockTime = 4 s

Courant Number mean: 0.002231240582 max: 0.0499718952
Max Ur Courant Number = 0.001122253412
Interface Courant Number mean: 0.002403722466 max: 0.0499718952
deltaT = 8.377233849e-06
Time = 7.85043e-05

cellVolumeWeight : detected 2 mesh regions

    zone:0 nCells:1500
    zone:1 nCells:1600
Marking patch-cells on zone 0
Marking patch-cells on zone 1

After patch analysis : nCells : 3100
    other  : 2468
    patch  : 436
    overset: 196

Creating mesh-to-mesh addressing for region0 and region0 regions using cellVolumeWeight
    Overlap volume: 1.599999866e-07
cellVolumeWeight : detected 3 mesh regions after overset

Front : fraction:1 size:240
Overset analysis : nCells : 3100
    calculated   : 2788
    interpolated : 234
    hole         : 78

MESH CHANGED
PIMPLE: iteration 1
DILUPBiCG:  Solving for alpha.a, Initial residual = 5.42370507e-06, Final residual = 6.302416653e-14, No Iterations 1
Dispersed phase volume fraction = 0.07546134226  Min(alpha) = 0  Max(alpha) = 0.5000084459
smoothSolver:  Solving for pa, Initial residual = 0, Final residual = 0, No Iterations 0
Contact pressure  pff: Min =0, Max =0
Shear ind. press.  pa: Min =0, Max =0
DILUPBiCGStab:  Solving for p_rbgh, Initial residual = 0.01517971811, Final residual = 2.966043001e-09, No Iterations 51
DILUPBiCGStab:  Solving for p_rbgh, Initial residual = 3.412511946e-09, Final residual = 3.412511946e-09, No Iterations 0
time step continuity errors : sum local = 7.159369872e-14, global = -3.100903882e-14, cumulative = 1.746184607e-12
DILUPBiCGStab:  Solving for p_rbgh, Initial residual = 0.0004789657944, Final residual = 7.88168094e-09, No Iterations 41
DILUPBiCGStab:  Solving for p_rbgh, Initial residual = 7.847628114e-09, Final residual = 7.847628114e-09, No Iterations 0
time step continuity errors : sum local = 1.538136661e-13, global = -2.424932304e-14, cumulative = 1.721935284e-12
PIMPLE: iteration 2
DILUPBiCG:  Solving for alpha.a, Initial residual = 6.98001626e-08, Final residual = 6.98001626e-08, No Iterations 0
Dispersed phase volume fraction = 0.07546134226  Min(alpha) = 0  Max(alpha) = 0.5000084459
smoothSolver:  Solving for pa, Initial residual = 0, Final residual = 0, No Iterations 0
Contact pressure  pff: Min =0, Max =0
Shear ind. press.  pa: Min =0, Max =0
DILUPBiCGStab:  Solving for p_rbgh, Initial residual = 0.0003979793131, Final residual = 7.371015023e-09, No Iterations 46
DILUPBiCGStab:  Solving for p_rbgh, Initial residual = 6.325713435e-09, Final residual = 6.325713435e-09, No Iterations 0
time step continuity errors : sum local = 1.422346298e-13, global = -5.317066544e-14, cumulative = 1.668764619e-12
DILUPBiCGStab:  Solving for p_rbgh, Initial residual = 3.747585804e-06, Final residual = 8.659805313e-09, No Iterations 28
DILUPBiCGStab:  Solving for p_rbgh, Initial residual = 8.663226579e-09, Final residual = 8.663226579e-09, No Iterations 0
time step continuity errors : sum local = 2.128987041e-13, global = 8.797703722e-14, cumulative = 1.756741656e-12
 max(nutb) = 0
min(Ua) = (-0.2663795382 -0.6245123059 -6.029419514e-25)max(Ua) = (0.2692647934 0.5853572009 6.620964426e-25)
min(Ub) = (-0.2663795382 -0.6245123059 -6.029419514e-25)max(Ub) = (0.2692647934 0.5853572009 6.620964426e-25)

ExecutionTime = 4.77 s  ClockTime = 5 s

Courant Number mean: 0.002231659881 max: 0.04998902377
Max Ur Courant Number = 0.001121908673
Interface Courant Number mean: 0.00240488689 max: 0.04998902377
deltaT = 8.377233849e-06
Time = 8.68815e-05

cellVolumeWeight : detected 2 mesh regions

    zone:0 nCells:1500
    zone:1 nCells:1600
Marking patch-cells on zone 0
Marking patch-cells on zone 1

After patch analysis : nCells : 3100
    other  : 2468
    patch  : 436
    overset: 196

Creating mesh-to-mesh addressing for region0 and region0 regions using cellVolumeWeight
    Overlap volume: 1.599999818e-07
cellVolumeWeight : detected 3 mesh regions after overset

Front : fraction:1 size:240
Overset analysis : nCells : 3100
    calculated   : 2788
    interpolated : 234
    hole         : 78

MESH CHANGED
PIMPLE: iteration 1
DILUPBiCG:  Solving for alpha.a, Initial residual = 5.475430839e-06, Final residual = 6.252602215e-14, No Iterations 1
Dispersed phase volume fraction = 0.07546134227  Min(alpha) = 0  Max(alpha) = 0.5000103168
smoothSolver:  Solving for pa, Initial residual = 0, Final residual = 0, No Iterations 0
Contact pressure  pff: Min =0, Max =0
Shear ind. press.  pa: Min =0, Max =0
DILUPBiCGStab:  Solving for p_rbgh, Initial residual = 0.01316455794, Final residual = 9.06029536e-09, No Iterations 46
DILUPBiCGStab:  Solving for p_rbgh, Initial residual = 1.033544042e-08, Final residual = 8.664379313e-09, No Iterations 1
time step continuity errors : sum local = 1.73258748e-13, global = 1.261748178e-13, cumulative = 1.882916474e-12
DILUPBiCGStab:  Solving for p_rbgh, Initial residual = 0.0004409377895, Final residual = 2.130676254e-09, No Iterations 47
DILUPBiCGStab:  Solving for p_rbgh, Initial residual = 2.121683856e-09, Final residual = 2.121683856e-09, No Iterations 0
time step continuity errors : sum local = 4.371610456e-14, global = 1.435067073e-16, cumulative = 1.883059981e-12
PIMPLE: iteration 2
DILUPBiCG:  Solving for alpha.a, Initial residual = 6.709424336e-08, Final residual = 6.709424336e-08, No Iterations 0
Dispersed phase volume fraction = 0.07546134227  Min(alpha) = 0  Max(alpha) = 0.5000103168
smoothSolver:  Solving for pa, Initial residual = 0, Final residual = 0, No Iterations 0
Contact pressure  pff: Min =0, Max =0
Shear ind. press.  pa: Min =0, Max =0
DILUPBiCGStab:  Solving for p_rbgh, Initial residual = 0.000390377438, Final residual = 6.877112415e-09, No Iterations 45
DILUPBiCGStab:  Solving for p_rbgh, Initial residual = 5.913956129e-09, Final residual = 5.913956129e-09, No Iterations 0
time step continuity errors : sum local = 1.417237627e-13, global = -5.544940166e-14, cumulative = 1.827610579e-12
DILUPBiCGStab:  Solving for p_rbgh, Initial residual = 3.657361791e-06, Final residual = 4.641119909e-09, No Iterations 31
DILUPBiCGStab:  Solving for p_rbgh, Initial residual = 4.642882425e-09, Final residual = 4.642882425e-09, No Iterations 0
time step continuity errors : sum local = 1.092161414e-13, global = 7.210821095e-14, cumulative = 1.89971879e-12
 max(nutb) = 0
min(Ua) = (-0.2692739249 -0.6223891305 -6.001894156e-25)max(Ua) = (0.2721567474 0.5833127693 6.058454523e-25)
min(Ub) = (-0.2692739249 -0.6223891305 -6.001894156e-25)max(Ub) = (0.2721567474 0.5833127693 6.058454523e-25)

ExecutionTime = 5.16 s  ClockTime = 5 s

Courant Number mean: 0.002232029109 max: 0.05000666909
Max Ur Courant Number = 0.001121278194
Interface Courant Number mean: 0.002405996001 max: 0.05000666909
deltaT = 8.377233849e-06
Time = 9.52587e-05

cellVolumeWeight : detected 2 mesh regions

    zone:0 nCells:1500
    zone:1 nCells:1600
Marking patch-cells on zone 0
Marking patch-cells on zone 1

After patch analysis : nCells : 3100
    other  : 2468
    patch  : 436
    overset: 196

Creating mesh-to-mesh addressing for region0 and region0 regions using cellVolumeWeight
    Overlap volume: 1.599999828e-07
cellVolumeWeight : detected 3 mesh regions after overset

Front : fraction:1 size:240
Overset analysis : nCells : 3100
    calculated   : 2788
    interpolated : 234
    hole         : 78

MESH CHANGED
PIMPLE: iteration 1
DILUPBiCG:  Solving for alpha.a, Initial residual = 5.528840292e-06, Final residual = 6.240501911e-14, No Iterations 1
Dispersed phase volume fraction = 0.07546134227  Min(alpha) = 0  Max(alpha) = 0.5000123487
smoothSolver:  Solving for pa, Initial residual = 0, Final residual = 0, No Iterations 0
Contact pressure  pff: Min =0, Max =0
Shear ind. press.  pa: Min =0, Max =0
DILUPBiCGStab:  Solving for p_rbgh, Initial residual = 0.01112364962, Final residual = 8.626515045e-09, No Iterations 55
DILUPBiCGStab:  Solving for p_rbgh, Initial residual = 9.795674552e-09, Final residual = 9.795674552e-09, No Iterations 0
time step continuity errors : sum local = 1.870561694e-13, global = -1.417530447e-13, cumulative = 1.757965745e-12
DILUPBiCGStab:  Solving for p_rbgh, Initial residual = 0.0004071288594, Final residual = 4.345273199e-09, No Iterations 41
DILUPBiCGStab:  Solving for p_rbgh, Initial residual = 4.327260556e-09, Final residual = 4.327260556e-09, No Iterations 0
time step continuity errors : sum local = 9.253088161e-14, global = -2.84786904e-14, cumulative = 1.729487055e-12
PIMPLE: iteration 2
DILUPBiCG:  Solving for alpha.a, Initial residual = 6.466281958e-08, Final residual = 6.466281958e-08, No Iterations 0
Dispersed phase volume fraction = 0.07546134227  Min(alpha) = 0  Max(alpha) = 0.5000123487
smoothSolver:  Solving for pa, Initial residual = 0, Final residual = 0, No Iterations 0
Contact pressure  pff: Min =0, Max =0
Shear ind. press.  pa: Min =0, Max =0
DILUPBiCGStab:  Solving for p_rbgh, Initial residual = 0.0003822598109, Final residual = 4.290738918e-09, No Iterations 47
DILUPBiCGStab:  Solving for p_rbgh, Initial residual = 3.699568925e-09, Final residual = 3.699568925e-09, No Iterations 0
time step continuity errors : sum local = 8.584077812e-14, global = 8.509364561e-15, cumulative = 1.737996419e-12
DILUPBiCGStab:  Solving for p_rbgh, Initial residual = 3.560359636e-06, Final residual = 7.310608324e-09, No Iterations 31
DILUPBiCGStab:  Solving for p_rbgh, Initial residual = 7.313264951e-09, Final residual = 7.313264951e-09, No Iterations 0
time step continuity errors : sum local = 1.80265458e-13, global = 1.674899729e-13, cumulative = 1.905486392e-12
 max(nutb) = 0
min(Ua) = (-0.272042746 -0.620176713 -6.039482294e-25)max(Ua) = (0.2749171189 0.581210047 5.523493927e-25)
min(Ub) = (-0.272042746 -0.620176713 -6.039482294e-25)max(Ub) = (0.2749171189 0.581210047 5.523493927e-25)

ExecutionTime = 5.55 s  ClockTime = 5 s

Courant Number mean: 0.002232344969 max: 0.05002409195
Max Ur Courant Number = 0.001120397955
Interface Courant Number mean: 0.002407048131 max: 0.05002409195
deltaT = 8.377233849e-06
Time = 0.000103636

cellVolumeWeight : detected 2 mesh regions

    zone:0 nCells:1500
    zone:1 nCells:1600
Marking patch-cells on zone 0
Marking patch-cells on zone 1

After patch analysis : nCells : 3100
    other  : 2468
    patch  : 436
    overset: 196

Creating mesh-to-mesh addressing for region0 and region0 regions using cellVolumeWeight
    Overlap volume: 1.599999868e-07
cellVolumeWeight : detected 3 mesh regions after overset

Front : fraction:1 size:240
Overset analysis : nCells : 3100
    calculated   : 2788
    interpolated : 234
    hole         : 78

MESH CHANGED
PIMPLE: iteration 1
DILUPBiCG:  Solving for alpha.a, Initial residual = 5.580795371e-06, Final residual = 6.231705599e-14, No Iterations 1
Dispersed phase volume fraction = 0.07546134228  Min(alpha) = 0  Max(alpha) = 0.5000145361
smoothSolver:  Solving for pa, Initial residual = 0, Final residual = 0, No Iterations 0
Contact pressure  pff: Min =0, Max =0
Shear ind. press.  pa: Min =0, Max =0
DILUPBiCGStab:  Solving for p_rbgh, Initial residual = 0.009742952809, Final residual = 8.253401731e-09, No Iterations 52
DILUPBiCGStab:  Solving for p_rbgh, Initial residual = 9.336555327e-09, Final residual = 9.336555327e-09, No Iterations 0
time step continuity errors : sum local = 2.020363923e-13, global = 1.692284109e-13, cumulative = 2.074714803e-12
DILUPBiCGStab:  Solving for p_rbgh, Initial residual = 0.0003774266154, Final residual = 6.888376212e-09, No Iterations 42
DILUPBiCGStab:  Solving for p_rbgh, Initial residual = 6.860255279e-09, Final residual = 6.860255279e-09, No Iterations 0
time step continuity errors : sum local = 1.255537685e-13, global = -3.224053283e-15, cumulative = 2.07149075e-12
PIMPLE: iteration 2
DILUPBiCG:  Solving for alpha.a, Initial residual = 6.24552106e-08, Final residual = 6.24552106e-08, No Iterations 0
Dispersed phase volume fraction = 0.07546134228  Min(alpha) = 0  Max(alpha) = 0.5000145361
smoothSolver:  Solving for pa, Initial residual = 0, Final residual = 0, No Iterations 0
Contact pressure  pff: Min =0, Max =0
Shear ind. press.  pa: Min =0, Max =0
DILUPBiCGStab:  Solving for p_rbgh, Initial residual = 0.0003741413289, Final residual = 6.378799486e-09, No Iterations 44
DILUPBiCGStab:  Solving for p_rbgh, Initial residual = 5.516016087e-09, Final residual = 5.516016087e-09, No Iterations 0
time step continuity errors : sum local = 1.403543722e-13, global = -3.692369138e-14, cumulative = 2.034567059e-12
DILUPBiCGStab:  Solving for p_rbgh, Initial residual = 3.464217947e-06, Final residual = 9.889606434e-09, No Iterations 33
DILUPBiCGStab:  Solving for p_rbgh, Initial residual = 9.893073402e-09, Final residual = 9.893073402e-09, No Iterations 0
time step continuity errors : sum local = 2.513163829e-13, global = -2.460784815e-13, cumulative = 1.788488577e-12
 max(nutb) = 0
min(Ua) = (-0.2747010429 -0.6178968685 -6.08418833e-25)max(Ua) = (0.2775620163 0.5790543474 5.013492761e-25)
min(Ub) = (-0.2747010429 -0.6178968685 -6.08418833e-25)max(Ub) = (0.2775620163 0.5790543474 5.013492761e-25)

ExecutionTime = 5.94 s  ClockTime = 6 s

Courant Number mean: 0.002232618806 max: 0.05004124543
Max Ur Courant Number = 0.001119312638
Interface Courant Number mean: 0.002408060351 max: 0.05004124543
deltaT = 8.377233849e-06
Time = 0.000112013

cellVolumeWeight : detected 2 mesh regions

    zone:0 nCells:1500
    zone:1 nCells:1600
Marking patch-cells on zone 0
Marking patch-cells on zone 1

After patch analysis : nCells : 3100
    other  : 2468
    patch  : 436
    overset: 196

Creating mesh-to-mesh addressing for region0 and region0 regions using cellVolumeWeight
    Overlap volume: 1.599999877e-07
cellVolumeWeight : detected 3 mesh regions after overset

Front : fraction:1 size:240
Overset analysis : nCells : 3100
    calculated   : 2788
    interpolated : 234
    hole         : 78

MESH CHANGED
PIMPLE: iteration 1
DILUPBiCG:  Solving for alpha.a, Initial residual = 5.631251596e-06, Final residual = 6.219448758e-14, No Iterations 1
Dispersed phase volume fraction = 0.07546134228  Min(alpha) = 0  Max(alpha) = 0.5000168736
smoothSolver:  Solving for pa, Initial residual = 0, Final residual = 0, No Iterations 0
Contact pressure  pff: Min =0, Max =0
Shear ind. press.  pa: Min =0, Max =0
DILUPBiCGStab:  Solving for p_rbgh, Initial residual = 0.008547522101, Final residual = 6.227390723e-09, No Iterations 45
DILUPBiCGStab:  Solving for p_rbgh, Initial residual = 7.012146642e-09, Final residual = 7.012146642e-09, No Iterations 0
time step continuity errors : sum local = 1.63443687e-13, global = 5.09607776e-14, cumulative = 1.839449355e-12
DILUPBiCGStab:  Solving for p_rbgh, Initial residual = 0.0003507348111, Final residual = 5.388382845e-09, No Iterations 42
DILUPBiCGStab:  Solving for p_rbgh, Initial residual = 5.366767556e-09, Final residual = 5.366767556e-09, No Iterations 0
time step continuity errors : sum local = 1.193332831e-13, global = -3.051282527e-14, cumulative = 1.80893653e-12
PIMPLE: iteration 2
DILUPBiCG:  Solving for alpha.a, Initial residual = 6.04377153e-08, Final residual = 6.04377153e-08, No Iterations 0
Dispersed phase volume fraction = 0.07546134228  Min(alpha) = 0  Max(alpha) = 0.5000168736
smoothSolver:  Solving for pa, Initial residual = 0, Final residual = 0, No Iterations 0
Contact pressure  pff: Min =0, Max =0
Shear ind. press.  pa: Min =0, Max =0
DILUPBiCGStab:  Solving for p_rbgh, Initial residual = 0.0003657694619, Final residual = 3.39171557e-09, No Iterations 47
DILUPBiCGStab:  Solving for p_rbgh, Initial residual = 2.942406907e-09, Final residual = 2.942406907e-09, No Iterations 0
time step continuity errors : sum local = 7.451368826e-14, global = 2.014407538e-14, cumulative = 1.829080605e-12
DILUPBiCGStab:  Solving for p_rbgh, Initial residual = 3.365310859e-06, Final residual = 7.707000309e-09, No Iterations 32
DILUPBiCGStab:  Solving for p_rbgh, Initial residual = 7.709561282e-09, Final residual = 7.709561282e-09, No Iterations 0
time step continuity errors : sum local = 1.876358691e-13, global = -1.087817153e-13, cumulative = 1.72029889e-12
 max(nutb) = 0
min(Ua) = (-0.2772616609 -0.6155542361 -6.164011275e-25)max(Ua) = (0.2801041153 0.576860037 4.536617109e-25)
min(Ub) = (-0.2772616609 -0.6155542361 -6.164011275e-25)max(Ub) = (0.2801041153 0.576860037 4.536617109e-25)

ExecutionTime = 6.33 s  ClockTime = 6 s

Courant Number mean: 0.002232859383 max: 0.05005753126
Max Ur Courant Number = 0.001118051277
Interface Courant Number mean: 0.00240904215 max: 0.05005753126
deltaT = 8.377233849e-06
Time = 0.00012039

cellVolumeWeight : detected 2 mesh regions

    zone:0 nCells:1500
    zone:1 nCells:1600
Marking patch-cells on zone 0
Marking patch-cells on zone 1

After patch analysis : nCells : 3100
    other  : 2468
    patch  : 436
    overset: 196

Creating mesh-to-mesh addressing for region0 and region0 regions using cellVolumeWeight
    Overlap volume: 1.599999892e-07
cellVolumeWeight : detected 3 mesh regions after overset

Front : fraction:1 size:240
Overset analysis : nCells : 3100
    calculated   : 2788
    interpolated : 234
    hole         : 78

MESH CHANGED
PIMPLE: iteration 1
DILUPBiCG:  Solving for alpha.a, Initial residual = 5.680350008e-06, Final residual = 6.204391612e-14, No Iterations 1
Dispersed phase volume fraction = 0.07546134229  Min(alpha) = 0  Max(alpha) = 0.5000193564
smoothSolver:  Solving for pa, Initial residual = 0, Final residual = 0, No Iterations 0
Contact pressure  pff: Min =0, Max =0
Shear ind. press.  pa: Min =0, Max =0
DILUPBiCGStab:  Solving for p_rbgh, Initial residual = 0.00748759762, Final residual = 1.514796799e-09, No Iterations 50
DILUPBiCGStab:  Solving for p_rbgh, Initial residual = 1.713579898e-09, Final residual = 1.713579898e-09, No Iterations 0
time step continuity errors : sum local = 3.903447468e-14, global = -3.298569266e-14, cumulative = 1.687313197e-12
DILUPBiCGStab:  Solving for p_rbgh, Initial residual = 0.0003295499755, Final residual = 7.748915407e-09, No Iterations 41
DILUPBiCGStab:  Solving for p_rbgh, Initial residual = 7.718047216e-09, Final residual = 7.718047216e-09, No Iterations 0
time step continuity errors : sum local = 1.753733616e-13, global = 6.213734186e-17, cumulative = 1.687375334e-12
PIMPLE: iteration 2
DILUPBiCG:  Solving for alpha.a, Initial residual = 5.849376007e-08, Final residual = 5.849376007e-08, No Iterations 0
Dispersed phase volume fraction = 0.07546134229  Min(alpha) = 0  Max(alpha) = 0.5000193564
smoothSolver:  Solving for pa, Initial residual = 0, Final residual = 0, No Iterations 0
Contact pressure  pff: Min =0, Max =0
Shear ind. press.  pa: Min =0, Max =0
DILUPBiCGStab:  Solving for p_rbgh, Initial residual = 0.0003603667752, Final residual = 2.304659393e-09, No Iterations 44
DILUPBiCGStab:  Solving for p_rbgh, Initial residual = 2.003828321e-09, Final residual = 2.003828321e-09, No Iterations 0
time step continuity errors : sum local = 5.560100918e-14, global = 1.239814237e-14, cumulative = 1.699773477e-12
DILUPBiCGStab:  Solving for p_rbgh, Initial residual = 3.291262724e-06, Final residual = 9.852311594e-09, No Iterations 33
DILUPBiCGStab:  Solving for p_rbgh, Initial residual = 9.855437222e-09, Final residual = 9.855437222e-09, No Iterations 0
time step continuity errors : sum local = 2.886895084e-13, global = -1.862817659e-13, cumulative = 1.513491711e-12
 max(nutb) = 0
min(Ua) = (-0.2797313654 -0.613174669 -6.207859081e-25)max(Ua) = (0.2825520545 0.5746388379 4.092213121e-25)
min(Ub) = (-0.2797313654 -0.613174669 -6.207859081e-25)max(Ub) = (0.2825520545 0.5746388379 4.092213121e-25)

ExecutionTime = 6.71 s  ClockTime = 7 s

Courant Number mean: 0.002233068194 max: 0.05007332664
Max Ur Courant Number = 0.001116645525
Interface Courant Number mean: 0.002409997217 max: 0.05007332664
deltaT = 8.377233849e-06
Time = 0.000128768

cellVolumeWeight : detected 2 mesh regions

    zone:0 nCells:1500
    zone:1 nCells:1600
Marking patch-cells on zone 0
Marking patch-cells on zone 1

After patch analysis : nCells : 3100
    other  : 2468
    patch  : 436
    overset: 196

Creating mesh-to-mesh addressing for region0 and region0 regions using cellVolumeWeight
    Overlap volume: 1.599999912e-07
cellVolumeWeight : detected 3 mesh regions after overset

Front : fraction:1 size:240
Overset analysis : nCells : 3100
    calculated   : 2788
    interpolated : 234
    hole         : 78

MESH CHANGED
PIMPLE: iteration 1
DILUPBiCG:  Solving for alpha.a, Initial residual = 5.728152702e-06, Final residual = 6.187557757e-14, No Iterations 1
Dispersed phase volume fraction = 0.07546134229  Min(alpha) = 0  Max(alpha) = 0.5000219795
smoothSolver:  Solving for pa, Initial residual = 0, Final residual = 0, No Iterations 0
Contact pressure  pff: Min =0, Max =0
Shear ind. press.  pa: Min =0, Max =0
DILUPBiCGStab:  Solving for p_rbgh, Initial residual = 0.006690584347, Final residual = 2.965063969e-09, No Iterations 49
DILUPBiCGStab:  Solving for p_rbgh, Initial residual = 3.346929863e-09, Final residual = 3.346929863e-09, No Iterations 0
time step continuity errors : sum local = 7.126619721e-14, global = -6.396575292e-14, cumulative = 1.449525958e-12
DILUPBiCGStab:  Solving for p_rbgh, Initial residual = 0.0003104996742, Final residual = 5.703621925e-09, No Iterations 45
DILUPBiCGStab:  Solving for p_rbgh, Initial residual = 5.681019585e-09, Final residual = 5.681019585e-09, No Iterations 0
time step continuity errors : sum local = 1.305066582e-13, global = 6.369938865e-15, cumulative = 1.455895897e-12
PIMPLE: iteration 2
DILUPBiCG:  Solving for alpha.a, Initial residual = 5.672444581e-08, Final residual = 5.672444581e-08, No Iterations 0
Dispersed phase volume fraction = 0.07546134229  Min(alpha) = 0  Max(alpha) = 0.5000219795
smoothSolver:  Solving for pa, Initial residual = 0, Final residual = 0, No Iterations 0
Contact pressure  pff: Min =0, Max =0
Shear ind. press.  pa: Min =0, Max =0
DILUPBiCGStab:  Solving for p_rbgh, Initial residual = 0.000355035295, Final residual = 6.052555728e-09, No Iterations 44
DILUPBiCGStab:  Solving for p_rbgh, Initial residual = 5.274437555e-09, Final residual = 5.274437555e-09, No Iterations 0
time step continuity errors : sum local = 1.059911402e-13, global = -2.717727048e-17, cumulative = 1.455868719e-12
DILUPBiCGStab:  Solving for p_rbgh, Initial residual = 3.221863745e-06, Final residual = 4.161472395e-09, No Iterations 41
DILUPBiCGStab:  Solving for p_rbgh, Initial residual = 4.162712209e-09, Final residual = 4.162712209e-09, No Iterations 0
time step continuity errors : sum local = 1.084273314e-13, global = 1.083567699e-13, cumulative = 1.564225489e-12
 max(nutb) = 0
min(Ua) = (-0.282117717 -0.6107628013 -6.259675775e-25)max(Ua) = (0.284912626 0.5724006903 3.682343313e-25)
min(Ub) = (-0.282117717 -0.6107628013 -6.259675775e-25)max(Ub) = (0.284912626 0.5724006903 3.682343313e-25)

ExecutionTime = 7.08 s  ClockTime = 7 s

Courant Number mean: 0.002233252711 max: 0.05008880094
Max Ur Courant Number = 0.001115115975
Interface Courant Number mean: 0.002410933967 max: 0.05008880094
deltaT = 8.377233849e-06
Time = 0.000137145

cellVolumeWeight : detected 2 mesh regions

    zone:0 nCells:1500
    zone:1 nCells:1600
Marking patch-cells on zone 0
Marking patch-cells on zone 1

After patch analysis : nCells : 3100
    other  : 2468
    patch  : 436
    overset: 196

Creating mesh-to-mesh addressing for region0 and region0 regions using cellVolumeWeight
    Overlap volume: 1.599999936e-07
cellVolumeWeight : detected 3 mesh regions after overset

Front : fraction:1 size:240
Overset analysis : nCells : 3100
    calculated   : 2788
    interpolated : 234
    hole         : 78

MESH CHANGED
PIMPLE: iteration 1
DILUPBiCG:  Solving for alpha.a, Initial residual = 5.774612901e-06, Final residual = 6.168812206e-14, No Iterations 1
Dispersed phase volume fraction = 0.0754613423  Min(alpha) = 0  Max(alpha) = 0.5000247384
smoothSolver:  Solving for pa, Initial residual = 0, Final residual = 0, No Iterations 0
Contact pressure  pff: Min =0, Max =0
Shear ind. press.  pa: Min =0, Max =0
DILUPBiCGStab:  Solving for p_rbgh, Initial residual = 0.006101140211, Final residual = 5.11088204e-09, No Iterations 48
DILUPBiCGStab:  Solving for p_rbgh, Initial residual = 5.780093483e-09, Final residual = 5.780093483e-09, No Iterations 0
time step continuity errors : sum local = 1.260860654e-13, global = 1.016521025e-13, cumulative = 1.665877592e-12
DILUPBiCGStab:  Solving for p_rbgh, Initial residual = 0.0002940916633, Final residual = 9.115409221e-09, No Iterations 45
DILUPBiCGStab:  Solving for p_rbgh, Initial residual = 9.079505282e-09, Final residual = 9.079505282e-09, No Iterations 0
time step continuity errors : sum local = 2.089650669e-13, global = 4.011704924e-14, cumulative = 1.705994641e-12
PIMPLE: iteration 2
DILUPBiCG:  Solving for alpha.a, Initial residual = 5.504368182e-08, Final residual = 5.504368182e-08, No Iterations 0
Dispersed phase volume fraction = 0.0754613423  Min(alpha) = 0  Max(alpha) = 0.5000247384
smoothSolver:  Solving for pa, Initial residual = 0, Final residual = 0, No Iterations 0
Contact pressure  pff: Min =0, Max =0
Shear ind. press.  pa: Min =0, Max =0
DILUPBiCGStab:  Solving for p_rbgh, Initial residual = 0.0003513148317, Final residual = 3.60311861e-09, No Iterations 44
DILUPBiCGStab:  Solving for p_rbgh, Initial residual = 3.145403019e-09, Final residual = 3.145403019e-09, No Iterations 0
time step continuity errors : sum local = 9.983332578e-14, global = -5.407901545e-16, cumulative = 1.705453851e-12
DILUPBiCGStab:  Solving for p_rbgh, Initial residual = 3.162818992e-06, Final residual = 9.724337419e-09, No Iterations 40
DILUPBiCGStab:  Solving for p_rbgh, Initial residual = 9.727083435e-09, Final residual = 9.727083435e-09, No Iterations 0
time step continuity errors : sum local = 2.583931915e-13, global = 2.55580617e-13, cumulative = 1.961034468e-12
 max(nutb) = 0
min(Ua) = (-0.2844280686 -0.6083359164 -6.313943197e-25)max(Ua) = (0.2871932329 0.5701539099 3.304201106e-25)
min(Ub) = (-0.2844280686 -0.6083359164 -6.313943197e-25)max(Ub) = (0.2871932329 0.5701539099 3.304201106e-25)

ExecutionTime = 7.48 s  ClockTime = 7 s

Courant Number mean: 0.002233416205 max: 0.05010377581
Max Ur Courant Number = 0.001113486652
Interface Courant Number mean: 0.002411857302 max: 0.05010377581
deltaT = 8.377233849e-06
Time = 0.000145522

cellVolumeWeight : detected 2 mesh regions

    zone:0 nCells:1500
    zone:1 nCells:1600
Marking patch-cells on zone 0
Marking patch-cells on zone 1

After patch analysis : nCells : 3100
    other  : 2468
    patch  : 436
    overset: 196

Creating mesh-to-mesh addressing for region0 and region0 regions using cellVolumeWeight
    Overlap volume: 1.599999923e-07
cellVolumeWeight : detected 3 mesh regions after overset

Front : fraction:1 size:240
Overset analysis : nCells : 3100
    calculated   : 2788
    interpolated : 234
    hole         : 78

MESH CHANGED
PIMPLE: iteration 1
DILUPBiCG:  Solving for alpha.a, Initial residual = 5.820033326e-06, Final residual = 6.148400373e-14, No Iterations 1
Dispersed phase volume fraction = 0.0754613423  Min(alpha) = 0  Max(alpha) = 0.5000276285
smoothSolver:  Solving for pa, Initial residual = 0, Final residual = 0, No Iterations 0
Contact pressure  pff: Min =0, Max =0
Shear ind. press.  pa: Min =0, Max =0
DILUPBiCGStab:  Solving for p_rbgh, Initial residual = 0.00548969196, Final residual = 3.706351819e-09, No Iterations 52
DILUPBiCGStab:  Solving for p_rbgh, Initial residual = 4.182839414e-09, Final residual = 4.182839414e-09, No Iterations 0
time step continuity errors : sum local = 9.374848134e-14, global = 4.145627274e-14, cumulative = 2.002490741e-12
DILUPBiCGStab:  Solving for p_rbgh, Initial residual = 0.0002795976161, Final residual = 9.491027321e-09, No Iterations 45
DILUPBiCGStab:  Solving for p_rbgh, Initial residual = 9.454006248e-09, Final residual = 9.454006248e-09, No Iterations 0
time step continuity errors : sum local = 2.509988402e-13, global = 4.409836615e-14, cumulative = 2.046589107e-12
PIMPLE: iteration 2
DILUPBiCG:  Solving for alpha.a, Initial residual = 5.348319259e-08, Final residual = 5.348319259e-08, No Iterations 0
Dispersed phase volume fraction = 0.0754613423  Min(alpha) = 0  Max(alpha) = 0.5000276285
smoothSolver:  Solving for pa, Initial residual = 0, Final residual = 0, No Iterations 0
Contact pressure  pff: Min =0, Max =0
Shear ind. press.  pa: Min =0, Max =0
DILUPBiCGStab:  Solving for p_rbgh, Initial residual = 0.0003474650344, Final residual = 9.106905904e-09, No Iterations 45
DILUPBiCGStab:  Solving for p_rbgh, Initial residual = 7.964474313e-09, Final residual = 7.964474313e-09, No Iterations 0
time step continuity errors : sum local = 2.710063746e-13, global = -1.553515319e-14, cumulative = 2.031053954e-12
DILUPBiCGStab:  Solving for p_rbgh, Initial residual = 3.106814517e-06, Final residual = 8.695641972e-09, No Iterations 35
DILUPBiCGStab:  Solving for p_rbgh, Initial residual = 8.697978745e-09, Final residual = 8.697978745e-09, No Iterations 0
time step continuity errors : sum local = 2.358093363e-13, global = 2.192441821e-13, cumulative = 2.250298136e-12
 max(nutb) = 0
min(Ua) = (-0.2866675563 -0.6058942599 -6.372510306e-25)max(Ua) = (0.2893993958 0.5679070636 2.959231577e-25)
min(Ub) = (-0.2866675563 -0.6058942599 -6.372510306e-25)max(Ub) = (0.2893993958 0.5679070636 2.959231577e-25)

ExecutionTime = 7.94 s  ClockTime = 8 s

Courant Number mean: 0.002233563478 max: 0.05011809298
Max Ur Courant Number = 0.001111769216
Interface Courant Number mean: 0.002412772744 max: 0.05011809298
deltaT = 8.377233849e-06
Time = 0.000153899

cellVolumeWeight : detected 2 mesh regions

    zone:0 nCells:1500
    zone:1 nCells:1600
Marking patch-cells on zone 0
Marking patch-cells on zone 1

After patch analysis : nCells : 3100
    other  : 2468
    patch  : 436
    overset: 196

Creating mesh-to-mesh addressing for region0 and region0 regions using cellVolumeWeight
    Overlap volume: 1.599999955e-07
cellVolumeWeight : detected 3 mesh regions after overset

Front : fraction:1 size:240
Overset analysis : nCells : 3100
    calculated   : 2788
    interpolated : 234
    hole         : 78

MESH CHANGED
PIMPLE: iteration 1
DILUPBiCG:  Solving for alpha.a, Initial residual = 5.864211668e-06, Final residual = 6.128119878e-14, No Iterations 1
Dispersed phase volume fraction = 0.07546134231  Min(alpha) = 0  Max(alpha) = 0.5000306458
smoothSolver:  Solving for pa, Initial residual = 0, Final residual = 0, No Iterations 0
Contact pressure  pff: Min =0, Max =0
Shear ind. press.  pa: Min =0, Max =0
DILUPBiCGStab:  Solving for p_rbgh, Initial residual = 0.00490587185, Final residual = 2.711180355e-09, No Iterations 48
DILUPBiCGStab:  Solving for p_rbgh, Initial residual = 3.066937132e-09, Final residual = 3.066937132e-09, No Iterations 0
time step continuity errors : sum local = 6.643994727e-14, global = 4.63143037e-14, cumulative = 2.296612439e-12
DILUPBiCGStab:  Solving for p_rbgh, Initial residual = 0.0002673862338, Final residual = 9.000527152e-09, No Iterations 40
DILUPBiCGStab:  Solving for p_rbgh, Initial residual = 8.965774748e-09, Final residual = 8.965774748e-09, No Iterations 0
time step continuity errors : sum local = 1.84531475e-13, global = 3.459433945e-14, cumulative = 2.331206779e-12
PIMPLE: iteration 2
DILUPBiCG:  Solving for alpha.a, Initial residual = 5.20618656e-08, Final residual = 5.20618656e-08, No Iterations 0
Dispersed phase volume fraction = 0.07546134231  Min(alpha) = 0  Max(alpha) = 0.5000306458
smoothSolver:  Solving for pa, Initial residual = 0, Final residual = 0, No Iterations 0
Contact pressure  pff: Min =0, Max =0
Shear ind. press.  pa: Min =0, Max =0
DILUPBiCGStab:  Solving for p_rbgh, Initial residual = 0.0003451363044, Final residual = 2.800639124e-09, No Iterations 44
DILUPBiCGStab:  Solving for p_rbgh, Initial residual = 2.45251496e-09, Final residual = 2.45251496e-09, No Iterations 0
time step continuity errors : sum local = 7.919072509e-14, global = 3.761528522e-15, cumulative = 2.334968307e-12
DILUPBiCGStab:  Solving for p_rbgh, Initial residual = 3.05847986e-06, Final residual = 7.186165913e-09, No Iterations 32
DILUPBiCGStab:  Solving for p_rbgh, Initial residual = 7.188049963e-09, Final residual = 7.188049963e-09, No Iterations 0
time step continuity errors : sum local = 2.021724225e-13, global = -1.121565518e-13, cumulative = 2.222811756e-12
 max(nutb) = 0
min(Ua) = (-0.2888393067 -0.6034531676 -6.412426896e-25)max(Ua) = (0.2915348806 0.5656657687 2.650824794e-25)
min(Ub) = (-0.2888393067 -0.6034531676 -6.412426896e-25)max(Ub) = (0.2915348806 0.5656657687 2.650824794e-25)

ExecutionTime = 8.41 s  ClockTime = 8 s

Courant Number mean: 0.002233698585 max: 0.05013243273
Max Ur Courant Number = 0.001109983353
Interface Courant Number mean: 0.002413687078 max: 0.05013243273
deltaT = 8.377233849e-06
Time = 0.000162277

cellVolumeWeight : detected 2 mesh regions

    zone:0 nCells:1500
    zone:1 nCells:1600
Marking patch-cells on zone 0
Marking patch-cells on zone 1

After patch analysis : nCells : 3100
    other  : 2468
    patch  : 436
    overset: 196

Creating mesh-to-mesh addressing for region0 and region0 regions using cellVolumeWeight
    Overlap volume: 1.599999947e-07
cellVolumeWeight : detected 3 mesh regions after overset

Front : fraction:1 size:240
Overset analysis : nCells : 3100
    calculated   : 2788
    interpolated : 234
    hole         : 78

MESH CHANGED
PIMPLE: iteration 1
DILUPBiCG:  Solving for alpha.a, Initial residual = 5.907198117e-06, Final residual = 6.261593443e-14, No Iterations 1
Dispersed phase volume fraction = 0.07546134232  Min(alpha) = 0  Max(alpha) = 0.500033786
smoothSolver:  Solving for pa, Initial residual = 0, Final residual = 0, No Iterations 0
Contact pressure  pff: Min =0, Max =0
Shear ind. press.  pa: Min =0, Max =0
DILUPBiCGStab:  Solving for p_rbgh, Initial residual = 0.004487152837, Final residual = 9.756769646e-09, No Iterations 51
DILUPBiCGStab:  Solving for p_rbgh, Initial residual = 1.10484376e-08, Final residual = 9.128429751e-09, No Iterations 2
time step continuity errors : sum local = 2.206753391e-13, global = 7.604647046e-14, cumulative = 2.298858226e-12
DILUPBiCGStab:  Solving for p_rbgh, Initial residual = 0.0002570275821, Final residual = 9.73482481e-09, No Iterations 41
DILUPBiCGStab:  Solving for p_rbgh, Initial residual = 9.697508182e-09, Final residual = 9.697508182e-09, No Iterations 0
time step continuity errors : sum local = 2.513921464e-13, global = -7.883416234e-14, cumulative = 2.220024064e-12
PIMPLE: iteration 2
DILUPBiCG:  Solving for alpha.a, Initial residual = 5.076578572e-08, Final residual = 5.076578572e-08, No Iterations 0
Dispersed phase volume fraction = 0.07546134232  Min(alpha) = 0  Max(alpha) = 0.500033786
smoothSolver:  Solving for pa, Initial residual = 0, Final residual = 0, No Iterations 0
Contact pressure  pff: Min =0, Max =0
Shear ind. press.  pa: Min =0, Max =0
DILUPBiCGStab:  Solving for p_rbgh, Initial residual = 0.0003439524506, Final residual = 8.68930535e-09, No Iterations 41
DILUPBiCGStab:  Solving for p_rbgh, Initial residual = 7.617061312e-09, Final residual = 7.617061312e-09, No Iterations 0
time step continuity errors : sum local = 2.02933545e-13, global = 7.19466452e-14, cumulative = 2.291970709e-12
DILUPBiCGStab:  Solving for p_rbgh, Initial residual = 3.021675898e-06, Final residual = 8.004746827e-09, No Iterations 32
DILUPBiCGStab:  Solving for p_rbgh, Initial residual = 8.006725194e-09, Final residual = 8.006725194e-09, No Iterations 0
time step continuity errors : sum local = 2.364644694e-13, global = 1.834880108e-13, cumulative = 2.47545872e-12
 max(nutb) = 0
min(Ua) = (-0.2909474923 -0.6010193288 -6.444840662e-25)max(Ua) = (0.2936034798 0.56343779 2.62882475e-25)
min(Ub) = (-0.2909474923 -0.6010193288 -6.444840662e-25)max(Ub) = (0.2936034798 0.56343779 2.62882475e-25)

ExecutionTime = 8.87 s  ClockTime = 9 s

Courant Number mean: 0.002233826171 max: 0.05014689148
Max Ur Courant Number = 0.001108140855
Interface Courant Number mean: 0.002414603207 max: 0.05014689148
deltaT = 8.377233849e-06
Time = 0.000170654

cellVolumeWeight : detected 2 mesh regions

    zone:0 nCells:1500
    zone:1 nCells:1600
Marking patch-cells on zone 0
Marking patch-cells on zone 1

After patch analysis : nCells : 3100
    other  : 2468
    patch  : 436
    overset: 196

Creating mesh-to-mesh addressing for region0 and region0 regions using cellVolumeWeight
    Overlap volume: 1.599999984e-07
cellVolumeWeight : detected 3 mesh regions after overset

Front : fraction:1 size:240
Overset analysis : nCells : 3100
    calculated   : 2786
    interpolated : 234
    hole         : 80

MESH CHANGED
PIMPLE: iteration 1
DILUPBiCG:  Solving for alpha.a, Initial residual = 5.949118091e-06, Final residual = 6.570873301e-14, No Iterations 1
Dispersed phase volume fraction = 0.07546134227  Min(alpha) = 0  Max(alpha) = 0.5000370453
smoothSolver:  Solving for pa, Initial residual = 0, Final residual = 0, No Iterations 0
Contact pressure  pff: Min =0, Max =0
Shear ind. press.  pa: Min =0, Max =0
DILUPBiCGStab:  Solving for p_rbgh, Initial residual = 0.005406370456, Final residual = 6.124758556e-09, No Iterations 47
DILUPBiCGStab:  Solving for p_rbgh, Initial residual = 5.887261822e-09, Final residual = 5.887261822e-09, No Iterations 0
time step continuity errors : sum local = 1.97465634e-13, global = -1.441398038e-14, cumulative = 2.461044739e-12
DILUPBiCGStab:  Solving for p_rbgh, Initial residual = 0.0002106644398, Final residual = 6.556668041e-09, No Iterations 39
DILUPBiCGStab:  Solving for p_rbgh, Initial residual = 6.534503376e-09, Final residual = 6.534503376e-09, No Iterations 0
time step continuity errors : sum local = 1.993596205e-13, global = -1.625014577e-14, cumulative = 2.444794594e-12
PIMPLE: iteration 2
DILUPBiCG:  Solving for alpha.a, Initial residual = 4.98216098e-08, Final residual = 4.98216098e-08, No Iterations 0
Dispersed phase volume fraction = 0.07546134227  Min(alpha) = 0  Max(alpha) = 0.5000370453
smoothSolver:  Solving for pa, Initial residual = 0, Final residual = 0, No Iterations 0
Contact pressure  pff: Min =0, Max =0
Shear ind. press.  pa: Min =0, Max =0
DILUPBiCGStab:  Solving for p_rbgh, Initial residual = 0.0002915412355, Final residual = 2.033797182e-09, No Iterations 42
DILUPBiCGStab:  Solving for p_rbgh, Initial residual = 1.818582017e-09, Final residual = 1.818582017e-09, No Iterations 0
time step continuity errors : sum local = 5.904694676e-14, global = 8.98182142e-15, cumulative = 2.453776415e-12
DILUPBiCGStab:  Solving for p_rbgh, Initial residual = 2.574359691e-06, Final residual = 7.653416479e-09, No Iterations 31
DILUPBiCGStab:  Solving for p_rbgh, Initial residual = 7.654943931e-09, Final residual = 7.654943931e-09, No Iterations 0
time step continuity errors : sum local = 2.434778838e-13, global = 1.967742885e-13, cumulative = 2.650550704e-12
 max(nutb) = 0
min(Ua) = (-0.293009121 -0.5982835059 -7.781545856e-25)max(Ua) = (0.2956148426 0.5609509666 2.610572806e-25)
min(Ub) = (-0.293009121 -0.5982835059 -7.781545856e-25)max(Ub) = (0.2956148426 0.5609509666 2.610572806e-25)

ExecutionTime = 9.32 s  ClockTime = 9 s

Courant Number mean: 0.002229550785 max: 0.05016221435
Max Ur Courant Number = 0.001105886846
Interface Courant Number mean: 0.002418726534 max: 0.05016221435
deltaT = 8.377233849e-06
Time = 0.000179031

cellVolumeWeight : detected 2 mesh regions

    zone:0 nCells:1500
    zone:1 nCells:1600
Marking patch-cells on zone 0
Marking patch-cells on zone 1

After patch analysis : nCells : 3100
    other  : 2468
    patch  : 436
    overset: 196

Creating mesh-to-mesh addressing for region0 and region0 regions using cellVolumeWeight
    Overlap volume: 1.599999982e-07
cellVolumeWeight : detected 3 mesh regions after overset

Front : fraction:1 size:240
Overset analysis : nCells : 3100
    calculated   : 2786
    interpolated : 234
    hole         : 80

MESH CHANGED
PIMPLE: iteration 1
DILUPBiCG:  Solving for alpha.a, Initial residual = 5.989371036e-06, Final residual = 6.64082941e-14, No Iterations 1
Dispersed phase volume fraction = 0.07546134227  Min(alpha) = 0  Max(alpha) = 0.5000404198
smoothSolver:  Solving for pa, Initial residual = 0, Final residual = 0, No Iterations 0
Contact pressure  pff: Min =0, Max =0
Shear ind. press.  pa: Min =0, Max =0
[...]
Time = 0.00379039

cellVolumeWeight : detected 2 mesh regions

    zone:0 nCells:1500
    zone:1 nCells:1600
Marking patch-cells on zone 0
Marking patch-cells on zone 1

After patch analysis : nCells : 3100
    other  : 2468
    patch  : 436
    overset: 196

Creating mesh-to-mesh addressing for region0 and region0 regions using cellVolumeWeight
    Overlap volume: 1.599190114e-07
cellVolumeWeight : detected 3 mesh regions after overset

Front : fraction:1 size:268
Overset analysis : nCells : 3100
    calculated   : 2748
    interpolated : 254
    hole         : 98

MESH CHANGED
PIMPLE: iteration 1
DILUPBiCG:  Solving for alpha.a, Initial residual = 9.349438551e-06, Final residual = 2.955775083e-10, No Iterations 1
Dispersed phase volume fraction = 0.07546603108  Min(alpha) = 0  Max(alpha) = 0.5031814155
smoothSolver:  Solving for pa, Initial residual = 0, Final residual = 0, No Iterations 0
Contact pressure  pff: Min =0, Max =0
Shear ind. press.  pa: Min =0, Max =0
DILUPBiCGStab:  Solving for p_rbgh, Initial residual = 0.0009430735051, Final residual = 8.530998721e-09, No Iterations 51
DILUPBiCGStab:  Solving for p_rbgh, Initial residual = 1.151123602e-08, Final residual = 7.755782781e-09, No Iterations 1
time step continuity errors : sum local = 1.919142836e-13, global = -4.833117858e-14, cumulative = 1.92495734e-11
DILUPBiCGStab:  Solving for p_rbgh, Initial residual = 0.000296725133, Final residual = 7.285066414e-09, No Iterations 63
DILUPBiCGStab:  Solving for p_rbgh, Initial residual = 6.647522727e-09, Final residual = 6.647522727e-09, No Iterations 0
time step continuity errors : sum local = 1.504733463e-13, global = 3.063188349e-14, cumulative = 1.928020528e-11
PIMPLE: iteration 2
DILUPBiCG:  Solving for alpha.a, Initial residual = 1.380174376e-08, Final residual = 1.380174376e-08, No Iterations 0
Dispersed phase volume fraction = 0.07546603108  Min(alpha) = 0  Max(alpha) = 0.5031814155
smoothSolver:  Solving for pa, Initial residual = 0, Final residual = 0, No Iterations 0
Contact pressure  pff: Min =0, Max =0
Shear ind. press.  pa: Min =0, Max =0
DILUPBiCGStab:  Solving for p_rbgh, Initial residual = 0.0008902210852, Final residual = 9.843737027e-09, No Iterations 54
DILUPBiCGStab:  Solving for p_rbgh, Initial residual = 7.985690588e-09, Final residual = 7.985690588e-09, No Iterations 0
time step continuity errors : sum local = 1.949970988e-13, global = 3.506093002e-15, cumulative = 1.928371137e-11
DILUPBiCGStab:  Solving for p_rbgh, Initial residual = 8.736429015e-06, Final residual = 6.34882469e-09, No Iterations 37
DILUPBiCGStab:  Solving for p_rbgh, Initial residual = 6.350955071e-09, Final residual = 6.350955071e-09, No Iterations 0
time step continuity errors : sum local = 1.853519397e-13, global = 1.326798648e-13, cumulative = 1.941639124e-11
 max(nutb) = 0
min(Ua) = (-0.2422155572 -0.6055552692 -5.766553391e-25)max(Ua) = (0.2147962605 0.720535568 1.146535126e-24)
min(Ub) = (-0.2422155572 -0.6055552692 -5.766553391e-25)max(Ub) = (0.2147962605 0.720535568 1.146535126e-24)

ExecutionTime = 201.09 s  ClockTime = 202 s

Courant Number mean: 0.002346650383 max: 0.0503338022
Max Ur Courant Number = 0.003049769794
Interface Courant Number mean: 0.002989455168 max: 0.0503338022
deltaT = 7.48624226e-06
Time = 0.00379787

cellVolumeWeight : detected 2 mesh regions

    zone:0 nCells:1500
    zone:1 nCells:1600
Marking patch-cells on zone 0
Marking patch-cells on zone 1

After patch analysis : nCells : 3100
    other  : 2468
    patch  : 436
    overset: 196

Creating mesh-to-mesh addressing for region0 and region0 regions using cellVolumeWeight
    Overlap volume: 1.599236553e-07
cellVolumeWeight : detected 3 mesh regions after overset

Front : fraction:1 size:268
Overset analysis : nCells : 3100
    calculated   : 2748
    interpolated : 254
    hole         : 98

MESH CHANGED
PIMPLE: iteration 1
DILUPBiCG:  Solving for alpha.a, Initial residual = 9.35683016e-06, Final residual = 3.128078025e-10, No Iterations 1
Dispersed phase volume fraction = 0.07546616823  Min(alpha) = 0  Max(alpha) = 0.5031880093
smoothSolver:  Solving for pa, Initial residual = 0, Final residual = 0, No Iterations 0
Contact pressure  pff: Min =0, Max =0
Shear ind. press.  pa: Min =0, Max =0
DILUPBiCGStab:  Solving for p_rbgh, Initial residual = 0.0009387019121, Final residual = 6.122164542e-09, No Iterations 52
DILUPBiCGStab:  Solving for p_rbgh, Initial residual = 8.261582522e-09, Final residual = 8.261582522e-09, No Iterations 0
time step continuity errors : sum local = 1.808203431e-13, global = -1.738963638e-13, cumulative = 1.924249488e-11
DILUPBiCGStab:  Solving for p_rbgh, Initial residual = 0.0002969873509, Final residual = 2.26044688e-09, No Iterations 75
DILUPBiCGStab:  Solving for p_rbgh, Initial residual = 2.062127068e-09, Final residual = 2.062127068e-09, No Iterations 0
time step continuity errors : sum local = 5.28695747e-14, global = 8.825264929e-15, cumulative = 1.925132014e-11
PIMPLE: iteration 2
DILUPBiCG:  Solving for alpha.a, Initial residual = 1.377227557e-08, Final residual = 1.377227557e-08, No Iterations 0
Dispersed phase volume fraction = 0.07546616823  Min(alpha) = 0  Max(alpha) = 0.5031880093
smoothSolver:  Solving for pa, Initial residual = 0, Final residual = 0, No Iterations 0
Contact pressure  pff: Min =0, Max =0
Shear ind. press.  pa: Min =0, Max =0
DILUPBiCGStab:  Solving for p_rbgh, Initial residual = 0.0008902583864, Final residual = 6.693735772e-09, No Iterations 56
DILUPBiCGStab:  Solving for p_rbgh, Initial residual = 5.428956499e-09, Final residual = 5.428956499e-09, No Iterations 0
time step continuity errors : sum local = 1.506316668e-13, global = -1.147712373e-14, cumulative = 1.923984302e-11
DILUPBiCGStab:  Solving for p_rbgh, Initial residual = 8.732479613e-06, Final residual = 9.629710178e-09, No Iterations 37
DILUPBiCGStab:  Solving for p_rbgh, Initial residual = 9.632940924e-09, Final residual = 9.632940924e-09, No Iterations 0
time step continuity errors : sum local = 2.612302095e-13, global = 2.455131543e-13, cumulative = 1.948535617e-11
 max(nutb) = 0
min(Ua) = (-0.2421424602 -0.6057006887 -5.766606307e-25)max(Ua) = (0.2146435994 0.7170953472 1.146534622e-24)
min(Ub) = (-0.2421424602 -0.6057006887 -5.766606307e-25)max(Ub) = (0.2146435994 0.7170953472 1.146534622e-24)

ExecutionTime = 201.51 s  ClockTime = 203 s

Courant Number mean: 0.002348011763 max: 0.05038758449
Max Ur Courant Number = 0.003104581297
Interface Courant Number mean: 0.002992017638 max: 0.05038758449
deltaT = 7.48624226e-06
Time = 0.00380536

cellVolumeWeight : detected 2 mesh regions

    zone:0 nCells:1500
    zone:1 nCells:1600
Marking patch-cells on zone 0
Marking patch-cells on zone 1

After patch analysis : nCells : 3100
    other  : 2468
    patch  : 436
    overset: 196

Creating mesh-to-mesh addressing for region0 and region0 regions using cellVolumeWeight
    Overlap volume: 1.599281547e-07
cellVolumeWeight : detected 3 mesh regions after overset

Front : fraction:1 size:268
Overset analysis : nCells : 3100
    calculated   : 2748
    interpolated : 254
    hole         : 98

MESH CHANGED
PIMPLE: iteration 1
DILUPBiCG:  Solving for alpha.a, Initial residual = 9.364220362e-06, Final residual = 3.306811362e-10, No Iterations 1
Dispersed phase volume fraction = 0.07546630743  Min(alpha) = 0  Max(alpha) = 0.5031946021
smoothSolver:  Solving for pa, Initial residual = 0, Final residual = 0, No Iterations 0
Contact pressure  pff: Min =0, Max =0
Shear ind. press.  pa: Min =0, Max =0
DILUPBiCGStab:  Solving for p_rbgh, Initial residual = 0.0009234963859, Final residual = 8.614780811e-09, No Iterations 66
DILUPBiCGStab:  Solving for p_rbgh, Initial residual = 1.164201045e-08, Final residual = 7.991921426e-09, No Iterations 1
time step continuity errors : sum local = 1.689639647e-13, global = 1.398200582e-13, cumulative = 1.962517623e-11
DILUPBiCGStab:  Solving for p_rbgh, Initial residual = 0.0002972370438, Final residual = 4.146552744e-09, No Iterations 57
DILUPBiCGStab:  Solving for p_rbgh, Initial residual = 3.782269827e-09, Final residual = 3.782269827e-09, No Iterations 0
time step continuity errors : sum local = 9.629059893e-14, global = 1.829933949e-14, cumulative = 1.964347557e-11
PIMPLE: iteration 2
DILUPBiCG:  Solving for alpha.a, Initial residual = 1.382909387e-08, Final residual = 1.382909387e-08, No Iterations 0
Dispersed phase volume fraction = 0.07546630743  Min(alpha) = 0  Max(alpha) = 0.5031946021
smoothSolver:  Solving for pa, Initial residual = 0, Final residual = 0, No Iterations 0
Contact pressure  pff: Min =0, Max =0
Shear ind. press.  pa: Min =0, Max =0
DILUPBiCGStab:  Solving for p_rbgh, Initial residual = 0.0008911073059, Final residual = 6.507260476e-09, No Iterations 59
DILUPBiCGStab:  Solving for p_rbgh, Initial residual = 5.277418558e-09, Final residual = 5.277418558e-09, No Iterations 0
time step continuity errors : sum local = 1.388299875e-13, global = -1.240577821e-14, cumulative = 1.963106979e-11
DILUPBiCGStab:  Solving for p_rbgh, Initial residual = 8.739538623e-06, Final residual = 9.935801213e-09, No Iterations 37
DILUPBiCGStab:  Solving for p_rbgh, Initial residual = 9.939147296e-09, Final residual = 9.939147296e-09, No Iterations 0
time step continuity errors : sum local = 2.819152574e-13, global = 2.569609421e-13, cumulative = 1.988803073e-11
 max(nutb) = 0
min(Ua) = (-0.2420700467 -0.6058704347 -5.766657666e-25)max(Ua) = (0.2144916723 0.7134780603 1.146534433e-24)
min(Ub) = (-0.2420700467 -0.6058704347 -5.766657666e-25)max(Ub) = (0.2144916723 0.7134780603 1.146534433e-24)

ExecutionTime = 201.95 s  ClockTime = 203 s

Courant Number mean: 0.002349375817 max: 0.05044142321
Max Ur Courant Number = 0.003159380766
Interface Courant Number mean: 0.002994572 max: 0.05044142321
deltaT = 7.48624226e-06
Time = 0.00381284

cellVolumeWeight : detected 2 mesh regions

    zone:0 nCells:1500
    zone:1 nCells:1600
Marking patch-cells on zone 0
Marking patch-cells on zone 1

After patch analysis : nCells : 3100
    other  : 2468
    patch  : 436
    overset: 196

Creating mesh-to-mesh addressing for region0 and region0 regions using cellVolumeWeight
    Overlap volume: 1.599325147e-07
cellVolumeWeight : detected 3 mesh regions after overset

Front : fraction:1 size:268
Overset analysis : nCells : 3100
    calculated   : 2750
    interpolated : 254
    hole         : 96

MESH CHANGED
PIMPLE: iteration 1
DILUPBiCG:  Solving for alpha.a, Initial residual = 9.376155551e-06, Final residual = 3.493857033e-10, No Iterations 1
Dispersed phase volume fraction = 0.07546644871  Min(alpha) = 0  Max(alpha) = 0.5032011938
smoothSolver:  Solving for pa, Initial residual = 0, Final residual = 0, No Iterations 0
Contact pressure  pff: Min =0, Max =0
Shear ind. press.  pa: Min =0, Max =0
DILUPBiCGStab:  Solving for p_rbgh, Initial residual = 0.001659423645, Final residual = 3.40100195e-09, No Iterations 72
DILUPBiCGStab:  Solving for p_rbgh, Initial residual = 3.005372067e-09, Final residual = 3.005372067e-09, No Iterations 0
time step continuity errors : sum local = 9.572489397e-14, global = 3.271977889e-14, cumulative = 1.992075051e-11
DILUPBiCGStab:  Solving for p_rbgh, Initial residual = 0.0002047247716, Final residual = 6.391101353e-09, No Iterations 55
DILUPBiCGStab:  Solving for p_rbgh, Initial residual = 5.643418781e-09, Final residual = 5.643418781e-09, No Iterations 0
time step continuity errors : sum local = 1.877716571e-13, global = 1.054837374e-15, cumulative = 1.992180535e-11
PIMPLE: iteration 2
DILUPBiCG:  Solving for alpha.a, Initial residual = 1.541503108e-08, Final residual = 1.541503108e-08, No Iterations 0
Dispersed phase volume fraction = 0.07546644871  Min(alpha) = 0  Max(alpha) = 0.5032011938
smoothSolver:  Solving for pa, Initial residual = 0, Final residual = 0, No Iterations 0
Contact pressure  pff: Min =0, Max =0
Shear ind. press.  pa: Min =0, Max =0
DILUPBiCGStab:  Solving for p_rbgh, Initial residual = 0.0005701297341, Final residual = 2.764853636e-09, No Iterations 52
DILUPBiCGStab:  Solving for p_rbgh, Initial residual = 2.213521458e-09, Final residual = 2.213521458e-09, No Iterations 0
time step continuity errors : sum local = 1.017547215e-13, global = -1.841929408e-15, cumulative = 1.991996342e-11
DILUPBiCGStab:  Solving for p_rbgh, Initial residual = 5.636116191e-06, Final residual = 1.840154605e-09, No Iterations 45
DILUPBiCGStab:  Solving for p_rbgh, Initial residual = 1.84083473e-09, Final residual = 1.84083473e-09, No Iterations 0
time step continuity errors : sum local = 8.858952094e-14, global = -6.408484544e-14, cumulative = 1.985587857e-11
 max(nutb) = 0
min(Ua) = (-0.2420824481 -0.6060634808 -5.766705533e-25)max(Ua) = (0.2142481106 0.7096850429 1.190088182e-24)
min(Ub) = (-0.2420824481 -0.6060634808 -5.766705533e-25)max(Ub) = (0.2142481106 0.7096850429 1.190088182e-24)

ExecutionTime = 202.38 s  ClockTime = 204 s

Courant Number mean: 0.002353802791 max: 0.05048820473
Max Ur Courant Number = 0.003213843606
Interface Courant Number mean: 0.002994036473 max: 0.05048820473
deltaT = 7.48624226e-06
Time = 0.00382033

cellVolumeWeight : detected 2 mesh regions

    zone:0 nCells:1500
    zone:1 nCells:1600
Marking patch-cells on zone 0
Marking patch-cells on zone 1

After patch analysis : nCells : 3100
    other  : 2468
    patch  : 436
    overset: 196

Creating mesh-to-mesh addressing for region0 and region0 regions using cellVolumeWeight
    Overlap volume: 1.599367276e-07
cellVolumeWeight : detected 3 mesh regions after overset

Front : fraction:1 size:268
Overset analysis : nCells : 3100
    calculated   : 2750
    interpolated : 254
    hole         : 96

MESH CHANGED
PIMPLE: iteration 1
DILUPBiCG:  Solving for alpha.a, Initial residual = 9.380096001e-06, Final residual = 3.697994912e-10, No Iterations 1
Dispersed phase volume fraction = 0.07546659197  Min(alpha) = 0  Max(alpha) = 0.5032077844
smoothSolver:  Solving for pa, Initial residual = 0, Final residual = 0, No Iterations 0
Contact pressure  pff: Min =0, Max =0
Shear ind. press.  pa: Min =0, Max =0
DILUPBiCGStab:  Solving for p_rbgh, Initial residual = 0.001129920602, Final residual = 6.580964597e-09, No Iterations 67
DILUPBiCGStab:  Solving for p_rbgh, Initial residual = 1.263389138e-08, Final residual = 6.86752153e-09, No Iterations 4
time step continuity errors : sum local = 1.749245591e-13, global = 1.359286506e-13, cumulative = 1.999180722e-11
DILUPBiCGStab:  Solving for p_rbgh, Initial residual = 0.000272362248, Final residual = 7.399006116e-09, No Iterations 51
DILUPBiCGStab:  Solving for p_rbgh, Initial residual = 6.605516716e-09, Final residual = 6.605516716e-09, No Iterations 0
time step continuity errors : sum local = 1.945575823e-13, global = 2.611158401e-14, cumulative = 2.001791881e-11
PIMPLE: iteration 2
DILUPBiCG:  Solving for alpha.a, Initial residual = 1.408701138e-08, Final residual = 1.408701138e-08, No Iterations 0
Dispersed phase volume fraction = 0.07546659197  Min(alpha) = 0  Max(alpha) = 0.5032077844
smoothSolver:  Solving for pa, Initial residual = 0, Final residual = 0, No Iterations 0
Contact pressure  pff: Min =0, Max =0
Shear ind. press.  pa: Min =0, Max =0
DILUPBiCGStab:  Solving for p_rbgh, Initial residual = 0.0007823094185, Final residual = 2.55537175e-09, No Iterations 53
DILUPBiCGStab:  Solving for p_rbgh, Initial residual = 2.014059182e-09, Final residual = 2.014059182e-09, No Iterations 0
time step continuity errors : sum local = 6.797001193e-14, global = 8.831834812e-15, cumulative = 2.002675064e-11
DILUPBiCGStab:  Solving for p_rbgh, Initial residual = 7.614902518e-06, Final residual = 3.308038737e-09, No Iterations 42
DILUPBiCGStab:  Solving for p_rbgh, Initial residual = 3.309499317e-09, Final residual = 3.309499317e-09, No Iterations 0
time step continuity errors : sum local = 1.072853999e-13, global = 3.439717452e-14, cumulative = 2.006114782e-11
 max(nutb) = 0
min(Ua) = (-0.2420274099 -0.6062790812 -5.766754172e-25)max(Ua) = (0.2140578529 0.7057174087 1.146534622e-24)
min(Ub) = (-0.2420274099 -0.6062790812 -5.766754172e-25)max(Ub) = (0.2140578529 0.7057174087 1.146534622e-24)

ExecutionTime = 202.8 s  ClockTime = 204 s

Courant Number mean: 0.002355412842 max: 0.0505401556
Max Ur Courant Number = 0.003268625327
Interface Courant Number mean: 0.002996708792 max: 0.0505401556
deltaT = 7.48624226e-06
Time = 0.00382782

cellVolumeWeight : detected 2 mesh regions

    zone:0 nCells:1500
    zone:1 nCells:1600
Marking patch-cells on zone 0
Marking patch-cells on zone 1

After patch analysis : nCells : 3100
    other  : 2468
    patch  : 436
    overset: 196

Creating mesh-to-mesh addressing for region0 and region0 regions using cellVolumeWeight
    Overlap volume: 1.599407974e-07
cellVolumeWeight : detected 3 mesh regions after overset

Front : fraction:1 size:268
Overset analysis : nCells : 3100
    calculated   : 2750
    interpolated : 254
    hole         : 96

MESH CHANGED
PIMPLE: iteration 1
DILUPBiCG:  Solving for alpha.a, Initial residual = 9.387137982e-06, Final residual = 3.900156846e-10, No Iterations 1
Dispersed phase volume fraction = 0.07546673724  Min(alpha) = 0  Max(alpha) = 0.5032143739
smoothSolver:  Solving for pa, Initial residual = 0, Final residual = 0, No Iterations 0
Contact pressure  pff: Min =0, Max =0
Shear ind. press.  pa: Min =0, Max =0
DILUPBiCGStab:  Solving for p_rbgh, Initial residual = 0.0009367548939, Final residual = 8.375545883e-09, No Iterations 52
DILUPBiCGStab:  Solving for p_rbgh, Initial residual = 1.29871509e-08, Final residual = 9.988545433e-09, No Iterations 1
time step continuity errors : sum local = 2.234551636e-13, global = 2.219465891e-13, cumulative = 2.028309441e-11
DILUPBiCGStab:  Solving for p_rbgh, Initial residual = 0.0002973820989, Final residual = 9.484298512e-09, No Iterations 53
DILUPBiCGStab:  Solving for p_rbgh, Initial residual = 8.555996547e-09, Final residual = 8.555996547e-09, No Iterations 0
time step continuity errors : sum local = 2.086313157e-13, global = 1.046024939e-14, cumulative = 2.029355466e-11
PIMPLE: iteration 2
DILUPBiCG:  Solving for alpha.a, Initial residual = 1.398314757e-08, Final residual = 1.398314757e-08, No Iterations 0
Dispersed phase volume fraction = 0.07546673724  Min(alpha) = 0  Max(alpha) = 0.5032143739
smoothSolver:  Solving for pa, Initial residual = 0, Final residual = 0, No Iterations 0
Contact pressure  pff: Min =0, Max =0
Shear ind. press.  pa: Min =0, Max =0
DILUPBiCGStab:  Solving for p_rbgh, Initial residual = 0.0008629571766, Final residual = 3.644168617e-09, No Iterations 52
DILUPBiCGStab:  Solving for p_rbgh, Initial residual = 2.894477365e-09, Final residual = 2.894477365e-09, No Iterations 0
time step continuity errors : sum local = 9.223300119e-14, global = 1.017293247e-14, cumulative = 2.030372759e-11
DILUPBiCGStab:  Solving for p_rbgh, Initial residual = 8.460634579e-06, Final residual = 9.286479808e-09, No Iterations 45
DILUPBiCGStab:  Solving for p_rbgh, Initial residual = 9.290596947e-09, Final residual = 9.290596947e-09, No Iterations 0
time step continuity errors : sum local = 2.85924104e-13, global = -2.784597261e-13, cumulative = 2.002526786e-11
 max(nutb) = 0
min(Ua) = (-0.2419630042 -0.6065163594 -5.766801091e-25)max(Ua) = (0.2138893279 0.701576911 1.146535239e-24)
min(Ub) = (-0.2419630042 -0.6065163594 -5.766801091e-25)max(Ub) = (0.2138893279 0.701576911 1.146535239e-24)

ExecutionTime = 203.22 s  ClockTime = 204 s

Courant Number mean: 0.002356883632 max: 0.05059325667
Max Ur Courant Number = 0.003323443833
Interface Courant Number mean: 0.002999240916 max: 0.05059325667
deltaT = 7.48624226e-06
Time = 0.0038353

cellVolumeWeight : detected 2 mesh regions

    zone:0 nCells:1500
    zone:1 nCells:1600
Marking patch-cells on zone 0
Marking patch-cells on zone 1

After patch analysis : nCells : 3100
    other  : 2468
    patch  : 436
    overset: 196

Creating mesh-to-mesh addressing for region0 and region0 regions using cellVolumeWeight
